16
Coordinates from ORCA-job ./opt_b97-3c
  C   -2.70145578107911     -0.00556799966885     -0.00238950234253
  C   -1.92985275859769     -1.16470898099961     -0.00454762992395
  C   -0.57992464542526     -0.78451002435507     -0.00211739276248
  C   -0.54637741059477      0.70126617902972      0.00106718192209
  C   -1.86784520033597      1.13034581957065      0.00099871562666
  H   -2.19539691594990      2.15783492161418      0.00273471648319
  C   0.58700183606242      1.50460890277132      0.00293583939852
  N   1.89583124507009      1.25026423550624      0.00430324378701
  N   2.46554674411202      0.04910901811762      0.00422507712757
  C   1.87614394478457     -1.14030377728875      0.00153068605666
  C   0.53831197334929     -1.57164103511213     -0.00178861116655
  H   0.39567976214451     -2.64786172320784     -0.00369355322887
  H   2.61296350610356     -1.93752870049494      0.00207145504147
  H   0.39601346843708      2.57512839937234      0.00415010826518
  H   -2.29574994673314     -2.17886892784276     -0.00703046273596
  H   -3.78107247724766      0.02154736528787     -0.00325895444811
