15
Coordinates from ORCA-job ./opt_b97-3c
  C   2.65099743673997     -0.01278174214372      0.04907525005900
  C   1.85119926562401      1.15305372635393      0.07547705923582
  C   0.51770806103511      0.77849492466872      0.05152368268172
  C   0.49846975718547     -0.71905263786650     -0.01526331637308
  N   -0.49955092639629     -1.56976869509430     -0.12078986467552
  N   -1.78105641416776     -1.25152584110785      0.00778925353624
  C   -2.30574946440254     -0.02266558043055      0.05577138163714
  N   -1.87156462305797      1.23622566100283     -0.08627802568405
  C   -0.59574141389078      1.58946965445104     -0.07995580476171
  H   -0.42197716596814      2.65876365729326     -0.17817198247700
  H   -3.37998602664713     -0.08056942058509      0.20215321007082
  C   1.84585703782934     -1.13751937798217     -0.02712004185213
  H   2.15835998324757     -2.16691916009196     -0.07902259068194
  H   2.21765796095572      2.16793104908108      0.08788626743226
  H   3.73040529191344     -0.01765825034872      0.06026116605241
