14
Coordinates from ORCA-job ./opt_b97-3c
  C   -1.85308984571804     -1.17096970745106     -0.01185291215714
  N   -2.44983109315164      0.01131685786682     -0.17827096903195
  N   -1.92238211765919      1.21437365380992     -0.05777597693835
  C   -0.63055449288213      1.52632868668438      0.06286135120755
  C   0.50873495098936      0.74105231911180     -0.02922461455524
  C   1.85330970595589      1.09198999470778     -0.04908839907235
  N   2.62449870137748     -0.01829292248986     -0.03956486007654
  N   1.85618892268330     -1.11680514510603      0.00757725192019
  C   0.56795618973299     -0.71831796374273      0.00235629185383
  C   -0.51332504754879     -1.56252835283515      0.07202174831316
  H   -0.30687947580032     -2.62546314216688      0.12563574692915
  H   2.30034575293119      2.07261531040975     -0.07280209625710
  H   -0.48805294350767      2.59240909372238      0.21036839977439
  H   -2.57760543480243     -1.97741321082113     -0.02942245310958
