14
Coordinates from ORCA-job ./opt_b97-3c
  C   1.91312409508559      1.13214215408042      0.03315014561594
  N   2.45156762539392     -0.07142875255721      0.16043724691279
  N   1.86662577161591     -1.25238345954974     -0.01359184706159
  C   0.56905656260237     -1.50478913666913     -0.05671321238841
  C   -0.53738580183769     -0.65621757030859      0.07467040687891
  N   -1.78980492624937     -1.09703578517889      0.12129484114945
  N   -2.62182923367440     -0.00554854389486      0.09869369439576
  C   -1.90395736641995      1.10780942114391      0.00135634375043
  C   -0.52945668703122      0.80277925185929     -0.01126320251130
  C   0.58547538715664      1.58632761029243     -0.09463181617753
  H   0.45879765947333      2.66006541321432     -0.18614504713754
  H   -2.37791155469786      2.07588363777175     -0.03932100841749
  H   0.34151993624259     -2.55568786560992     -0.20135424744439
  H   2.66541469134012      1.91073376960624      0.10428411813498
