14
Coordinates from ORCA-job ./opt_b97-3c
  C   1.87657763686329      0.99208796130419      0.16212031303540
  N   2.33068374151740     -0.23177815033617     -0.04025402958465
  N   1.70847897830212     -1.34604285411246     -0.40095566709408
  N   0.44575846282867     -1.57950259442327     -0.15812381542681
  C   -0.51850572224348     -0.67394630185982     -0.00744367478169
  C   -1.86458314487509     -0.98079584606549      0.18014597267181
  C   -2.55603985500110      0.22293213675531      0.00992814250407
  N   -1.76260286290326      1.29235912775818     -0.23972276383022
  C   -0.50893894274888      0.81507561088696     -0.22041331267598
  C   0.62618870378772      1.56953441181032     -0.11138092452762
  H   0.53785320532697      2.64917369873202     -0.11480195699994
  H   -3.62814639785965      0.35418431389496      0.05091454341019
  H   -2.27575936426811     -1.96269741274770      0.33983793405170
  H   2.64701301957345      1.65656958470294      0.53982160454785
