13
Coordinates from ORCA-job ./opt_b97-3c
  C   -2.34013838087300     -0.00020029777564      0.17731312338222
  N   -1.85924880112693      1.21180768956006     -0.07840905999203
  C   -0.58842165744812      1.53947889670136     -0.19420387269658
  C   0.50070258175456      0.72010516756599      0.11135917490391
  N   1.78236721539972      1.11054351966608      0.18049216356336
  N   2.52319032453830     -0.00006560504706      0.27225980578980
  N   1.78245140979206     -1.11063402706348      0.17931434679225
  C   0.50075745862042     -0.72021920764611      0.11059381953923
  C   -0.58830390820416     -1.53935079344837     -0.19584192533153
  N   -1.85915561915177     -1.21189936407490     -0.07969460771943
  H   -0.38278317687120     -2.55156001587796     -0.52839944257996
  H   -0.38297724552192      2.55205774276412     -0.52568088584394
  H   -3.35300708950795     -0.00044631222407      0.56719987369277
