13
Coordinates from ORCA-job ./opt_b97-3c
  C   1.96850991179930      0.96826424345576      0.14157764920331
  N   2.34992686196767     -0.27156940019925     -0.09854923763996
  N   1.66703890748288     -1.35930351217298     -0.41996098908471
  N   0.42016242249453     -1.54784677424417     -0.07445757699709
  C   -0.49491064777289     -0.60028224457114      0.09254787453120
  N   -1.77271136976125     -0.93892385074551      0.33832377103027
  N   -2.52597520384026      0.17340508711396      0.21977420788665
  C   -1.77058349066499      1.23917711137069     -0.09232231677026
  C   -0.42912173766941      0.86676000366529     -0.16253477849238
  C   0.72834694189579      1.58730514597964     -0.09962407094283
  H   0.69997565534979      2.67094877779073     -0.13160747712404
  H   -2.21266674450279      2.21554133685264     -0.21071474509883
  H   2.77955978202164      1.59429503390431      0.49829009719865
