12
Coordinates from ORCA-job ./opt_b97-3c
  C   2.21531618264088      0.01544587695981      0.15597473038100
  N   1.69878435940545     -1.17832058823801      0.02284153754348
  N   0.53102255885196     -1.57207220366228     -0.38780272568504
  C   -0.49621653297875     -0.78052073189765     -0.09411132141601
  N   -1.77844752162767     -1.15602061220382     -0.08194025710587
  C   -2.43092762240411     -0.00112893326498      0.13467048354142
  N   -1.69729452655353      1.13958268575716      0.12241519712813
  C   -0.44164410596743      0.71230654487573      0.02990000949301
  N   0.54942234890251      1.54248047398849     -0.38522643825246
  N   1.78832683267810      1.20937571892821     -0.37330937019948
  H   -3.50047383903478      0.02430463371458      0.27668332697847
  H   3.20916412178736      0.04499696814278      0.58225944239335
