17
Coordinates from ORCA-job ./opt_b97-3c_parallel
  N   -3.43559019676393     -0.56663545222315      0.01019834942864
  C   -2.27323755682917     -0.51366144857577     -0.00572692710067
  C   -0.87229644074881     -0.37527071516476     -0.01442097055029
  C   -0.03144074597924     -1.49379673921444     -0.00068712759991
  C   1.33483440957323     -1.36299095079190      0.01577757718525
  C   1.91168514045740     -0.08178959738344      0.01790716353064
  N   3.28245479290870      0.05944045826031      0.09339090011928
  H   3.82142347445061     -0.72773144443912     -0.22382956081122
  H   3.65674467731570      0.93466770947267     -0.23047234327387
  C   1.08574198799528      1.03895000637847      0.00466378971554
  C   -0.30111594104792      0.92086724362345     -0.01290588816098
  N   -1.10149394513006      2.03374310019006     -0.09040310094899
  H   -0.71292896568277      2.89367126039919      0.25357227397881
  H   -2.07237549640482      1.90920479651866      0.14408912948453
  H   1.52897306254092      2.02773970868685      0.00047483144648
  H   1.96632413927621     -2.24089056205687      0.03473594663423
  H   -0.47965318513132     -2.47696692958019      0.00034330332250
