15
Coordinates from ORCA-job ./opt_b97-3c_parallel
  N   -3.59939722104650      0.00132062173393      0.01922251694729
  C   -2.43796450582970      0.00089515437904      0.00934417488252
  C   -1.02346870582236      0.00041052419873     -0.00134669619348
  C   -0.30993791557983     -1.20386294141183     -0.00563222610772
  C   1.06670900638642     -1.20421148703937     -0.01308897278619
  C   1.78455273624375     -0.00053493997262     -0.01291571783842
  N   3.16029092919379     -0.00099830974660     -0.07480829751199
  H   3.62366437292811      0.83594004829896      0.23365564838713
  H   3.62310536503034     -0.83822035659338      0.23372490821055
  C   1.06751944782181      1.20362439234111     -0.01318296372337
  C   -0.30912684708752      1.20420407209249     -0.00572667417974
  H   -0.84726422029474      2.14110518891402     -0.00176944904159
  H   1.60274292789821      2.14458635411653     -0.02062474272348
  H   1.60129912108510     -2.14553398641815     -0.02045759999405
  H   -0.84870443602687     -2.14040221659287     -0.00160242882744
