20
Coordinates from ORCA-job ./opt_b97-3c_parallel
  N   -3.44501329502781     -1.47527584596877      0.00271867022807
  C   -2.43230842362555     -0.89936037166630      0.00072635032489
  C   -1.21511879078386     -0.20372477468071     -0.00115461421145
  C   -1.20856592399317      1.21380668469953     -0.01048490813535
  N   -2.39172098020545      1.88940435329415     -0.08641251972419
  H   -2.39464428316364      2.85570966131731      0.18428332346453
  H   -3.23657627702269      1.39005639797193      0.13328096412517
  C   0.00004391041905      1.89986894317013      0.00431111205876
  C   1.20867356492504      1.21387301279142      0.01922017325439
  N   2.39223370162270      1.89006116479550      0.08121545102903
  H   2.39483190749106      2.85251364195529     -0.20293078480808
  H   3.23627092806182      1.38728942871839     -0.13372841764097
  C   1.21497221552802     -0.20365244495633      0.02139305562883
  C   2.43179176808079     -0.89941086710143     -0.00313484404251
  N   3.44374681642979     -1.47591119822914     -0.03408815187417
  C   -0.00017866809063     -0.91871913312103      0.01868788578299
  N   -0.00067647031013     -2.27195313785235      0.07422242088431
  H   -0.85097593076195     -2.77039354761725     -0.11842017906344
  H   0.85637580903828     -2.76953304066444     -0.08840810489951
  H   0.00012959858835      2.98180915164408      0.00089933131871
