13
Coordinates from ORCA-job ./opt_b97-3c_parallel
  N   3.02776627501221      0.63982505038611     -0.00303121728986
  C   1.86829139736908      0.56174315714140     -0.00210184697695
  C   0.47061927742272      0.38859615697042     -0.00145650888370
  C   -0.41949695018399      1.45676536888313      0.00122726615543
  N   -1.74042219362443      1.30143041053236      0.00174995353457
  C   -2.16449423858112      0.03404195539319     -0.00052484491511
  N   -1.42955985527379     -1.06860567651911     -0.00318575984591
  C   -0.09771859560804     -0.91337100987449     -0.00367119602589
  N   0.65682176441219     -2.02127047627642     -0.00607638322958
  H   0.19926912107201     -2.91426627609634     -0.00865194476628
  H   1.65921228289310     -1.97979519415504     -0.00784804853566
  H   -3.23786874137001     -0.11256350085079     -0.00017610360610
  H   -0.03913851863993      2.47082375826559      0.00298870798505
