13
Coordinates from ORCA-job ./opt_b97-3c_parallel
  N   3.47541300750841      1.25432109674621      0.00091841435300
  C   2.44553726639769      0.72206909177837      0.00017906786986
  C   1.19431813597797      0.05503413678378     -0.00009053928617
  C   1.13956815272329     -1.34505742501041     -0.00023451213699
  N   0.00013447232447     -2.02756703585486     -0.00032767980309
  C   -1.13939093037059     -1.34521079373540     -0.00026899436071
  C   -1.19432977510007      0.05487340294702     -0.00013022050771
  C   -2.44564076247614      0.72173659251080      0.00005557501874
  N   -3.47559284003475      1.25384114021902      0.00051219835487
  C   -0.00005394686696      0.76885014873109     -0.00007315381872
  H   -0.00012654122068      1.84810099454265      0.00002814109416
  H   -2.05547179204679     -1.92131391712071     -0.00031801826364
  H   2.05572653178414     -1.92103734563757     -0.00025886691357
