18
Coordinates from ORCA-job ./opt_b97-3c_parallel
  N   2.58337913555904      1.04363342191174     -0.10005553266423
  C   1.29189182502593      0.52259250984364     -0.01880282629440
  C   0.19228319270566      1.37847041896961     -0.03254947426959
  C   -1.09958785084272      0.85616643986426     -0.01885535447715
  N   -2.19912698857003      1.71075858487701     -0.10046461419440
  H   -2.02440838977428      2.63754175324102      0.25202370795760
  H   -3.04229904713476      1.33292689860139      0.29977559666026
  C   -1.29093606517102     -0.52373175767196      0.00836331500332
  C   -0.19269133412228     -1.38114769324404      0.01996024337380
  N   -0.38507685377181     -2.75998642238357      0.11471077433157
  H   0.37427289929776     -3.30427967747516     -0.26099396126290
  H   -1.26439239614063     -3.07560781892317     -0.26105266838393
  C   1.09828081745526     -0.85699555054374      0.00825913987596
  H   1.95289280649449     -1.52305932879560      0.01959672112250
  H   -2.29520644736141     -0.93048936892535      0.01982797779679
  H   0.34182286079579      2.45087654494760     -0.07505659189166
  H   3.29083943709044      0.44907582363751      0.29982155560856
  H   2.66894800936454      1.98251241106880      0.25331056030791
