12
Coordinates from ORCA-job ./opt_b97-3c_parallel
  N   -2.29202624201424     -0.02250681034003     -0.05586268544144
  C   -0.93175202102556     -0.04068414336263     -0.00497177267964
  N   -0.31353521492413      1.14936886589897      0.00236981302064
  C   1.01603329346258      1.12732061968757      0.00418596584122
  N   1.81422071447967      0.06296816818317      0.00687659405509
  C   1.17502228148866     -1.11656925419137      0.00293223727604
  C   -0.19475892847499     -1.23418007924373     -0.00557338016071
  H   -0.67688860240890     -2.20252495997279     -0.01670461723811
  H   1.80065260474593     -2.00215794791565      0.00645787966000
  H   1.50323893323353      2.09586233824403      0.00855503843294
  H   -2.72300312321495      0.86101425739780      0.15530961642438
  H   -2.79755724384763     -0.83988076398534      0.23302257530959
