11
Coordinates from ORCA-job ./opt_b97-3c_parallel
  C   -1.40752952431100     -0.00081339000904     -0.00023567105321
  C   -0.69874477538652     -1.19200670329401     -0.00016386888120
  C   0.68801317284612     -1.13785300190263      0.00010579259854
  N   1.38403509576062      0.00077374324798      0.00030126116567
  C   0.68671981292271      1.13860851909106      0.00022904296693
  C   -0.70009959135955      1.19118441848914     -0.00003469919153
  H   -1.20965195915522      2.14526924834398     -0.00008084052146
  H   1.26912724868975      2.05324986161011      0.00039065814273
  H   1.27146140676679     -2.05183072239483      0.00016842737054
  H   -1.20721114192351     -2.14667070730074     -0.00031339178093
  H   -2.48958371125021     -0.00142849808103     -0.00044391321607
