21
Coordinates from ORCA-job ./opt_b97-3c_parallel
  N   -3.58622541483187     -1.80527840821086     -1.48766394387012
  C   -2.74161485412258     -1.25535689697881     -0.91207666420068
  C   -1.69458285249570     -0.63583638222799     -0.17822392843463
  C   -1.42559181654145      0.66669164258076     -0.36687378787321
  C   -0.38898371383400      1.44470297317287      0.30230667055517
  C   -0.81551373677995      2.71374304743493      0.77922602180107
  N   -1.19863339121591      3.74123364864774      1.16050721070675
  C   0.93535387313657      1.15449680600132      0.34729018177685
  C   1.62292955571319     -0.01295143405119     -0.15315305029542
  C   2.83698515118943      0.22576801828141     -0.83574324026575
  N   3.84331334591675      0.35596707272454     -1.40453240636400
  C   1.28807158719045     -1.33072856572979      0.07722190038767
  C   0.21052355846769     -1.74987121935948      0.98504212547460
  C   -1.07974299354084     -1.47082214459640      0.86606440421342
  H   -1.77350858434611     -1.91477796010638      1.57157976136937
  H   0.53182160519606     -2.39690244849053      1.79485211011613
  N   2.05268022115743     -2.34429515277029     -0.37298764305674
  H   2.81981709189655     -2.17350471483696     -1.00199044194459
  H   1.74891209550347     -3.29308990656507     -0.26103042891602
  H   1.58292444593891      1.95010823252225      0.69760153754098
  H   -2.05526216809767      1.22420986105818     -1.05052866412095
