25
Coordinates from ORCA-job ./opt_b97-3c_parallel
  N   -3.71626917239222     -2.06053905638680      0.91506722825450
  C   -2.77576311076961     -1.55161655291686      0.45448874353383
  C   -1.64858605012144     -0.89134668437660     -0.07595011755534
  C   -0.98009592277325     -1.55155979806402     -1.17764259031272
  C   0.33369313297438     -1.72657240283816     -1.37687472418119
  C   1.38802252215647     -1.44740670644507     -0.41231694817274
  N   2.22537807587276     -2.48878746371730     -0.19080654765721
  H   2.93418452416016     -2.41491954951045      0.52045312835839
  H   1.90203337283508     -3.41598364763708     -0.39856461619577
  C   1.59544823241889     -0.22973924315613      0.19455702580838
  C   2.65663836852008     -0.11102014861925      1.11169302303661
  N   3.55284900911093     -0.05729773335315      1.85389102733782
  C   0.97540099292018      1.02473252454697     -0.25643974706774
  N   1.84653777026459      1.97204318729753     -0.66184679845847
  H   1.54542324060249      2.92064796563120     -0.81037927324886
  H   2.83267422041126      1.80801104008037     -0.58283319874573
  C   -0.37718097462749      1.27160688588561     -0.22225082926560
  C   -0.82149288648149      2.54587318631062     -0.62329885549625
  N   -1.13732041977370      3.62047898343350     -0.94366225814607
  C   -1.39224239251952      0.39030613930353      0.36654270168019
  N   -2.16488811886592      0.96683341336379      1.31469153277855
  H   -2.07810493219569      1.95114115369748      1.48914373534686
  H   -3.02738964749480      0.53076544238924      1.59655978461757
  H   0.64664471468314     -2.29062333865307     -2.24772634345635
  H   -1.64256210151630     -2.02433973866634     -1.89595893389267
