20
Coordinates from ORCA-job ./opt_b97-3c_parallel
  N   3.72508528785837      0.40372986849676      0.46453421244617
  C   2.58581769444687      0.37621840483688      0.22004820334988
  C   1.20810217295360      0.28766189798520     -0.06752059060111
  C   0.63360394993189     -0.98072056650666      0.02355091470017
  C   -0.71212162091014     -1.33205605114618     -0.33119169781278
  C   -1.84124206113600     -0.62249626365490     -0.08748615722815
  N   -1.99275603418350      0.42504102516530      0.81962780181873
  C   -1.54420940391321      1.59385912141084      0.58335628592543
  C   -0.59957502807643      2.03509619985205     -0.41812687258802
  C   0.61998159860924      1.49071912824520     -0.60936657205409
  H   1.32040607556580      2.10101149998511     -1.17126931069112
  H   -0.76981571850006      3.02517592670848     -0.82386916783515
  H   -1.86896794061184      2.36820940867402      1.28181779132231
  N   -3.04499589073949     -0.95434363122734     -0.65154131233581
  H   -3.85541458068019     -0.74056027343520     -0.09522484992504
  H   -3.09611503620838     -1.82515543296594     -1.15109556893866
  H   -0.81746072599031     -2.28320839369600     -0.84116228146268
  N   1.43313864109698     -2.04790259947972      0.29249233611696
  H   2.39122574605733     -1.89600577912858      0.56078817701219
  H   1.00409028122980     -2.88966841852014      0.62828415368079
