16
Coordinates from ORCA-job ./opt_b97-3c_parallel
  N   2.43934673858014      0.22650599906127     -0.72505238456776
  C   1.26386911792104     -0.06387834876871     -0.08383964039882
  N   0.82020311959032      1.04056417350478      0.65355750076294
  C   -0.29797866761029      1.62098035727832      0.46284983084748
  C   -1.36545048113776      1.24350583340597     -0.44770591643967
  C   -1.90441415877505      0.01458609792590     -0.49176755019510
  N   -1.68140986127358     -1.04679243290972      0.35579894830358
  C   -0.55375140189860     -1.63871981821467      0.51271073110596
  C   0.72725201062698     -1.31230847976229     -0.05319468775988
  H   1.36859253838909     -2.14693884776171     -0.31202009877593
  H   -0.58510347184361     -2.52343490184039      1.14995132227845
  H   -2.73422204477373     -0.16175129682461     -1.17125640323556
  H   -1.83849049017046      2.04118637485942     -1.00844136590176
  H   -0.45828092161774      2.52072412742618      1.05912886854246
  H   2.95845107275634     -0.54858828186412     -1.09998544896738
  H   3.00187494243691      0.93815944608438     -0.28887943399897
