17
Coordinates from ORCA-job ./opt_b97-3c_parallel
  N   -2.25802745023906     -1.49772889991719     -0.60068135611114
  C   -1.31573931415759     -0.64385966833194     -0.09648665406322
  N   -1.66113075864668      0.59910781035902      0.04968438589955
  C   -0.89470228247485      1.50593754913180      0.71652999262746
  N   0.26547322472507      1.95775131314911      0.40841956625798
  C   0.97132039615519      1.44792384976927     -0.65059587287251
  N   1.45496487624159      0.27421832333637     -0.80036347499420
  C   1.16644541353129     -0.75911207401394      0.08832291236092
  N   2.30233272799292     -1.31930774653680      0.60627453613254
  H   2.22177478923872     -2.22119753036074      1.04227487282417
  H   3.13350858841766     -1.18589321507978      0.05614147423784
  C   -0.07396535022411     -1.26719294927525      0.32530597104728
  H   -0.15606063073173     -2.24591805268501      0.78173831988747
  H   1.22849953529590      2.18060250265664     -1.41307219304811
  H   -1.38430631839556      1.97318855176103      1.57020676537895
  H   -3.08440665938045     -1.06251250861299     -0.97591215454202
  H   -1.92949597814832     -2.31176210904959     -1.08838589612296
