19
Coordinates from ORCA-job ./opt_b97-3c_parallel
  N   -2.26369042667236     -1.62218901848394      0.43733618384907
  C   -1.31745481601840     -0.67196115325616      0.08073046972247
  C   -1.67840033888165      0.63492505603050     -0.02813460266984
  C   -0.92040361918995      1.65621353329834     -0.71070815633686
  N   0.29570943393302      2.01741956910856     -0.54314715523761
  C   1.07766791124714      1.55132337867741      0.49641775958637
  C   1.54336310119447      0.31850097395392      0.71518923553694
  C   1.19783830031623     -0.86853062943299     -0.06375381147549
  C   -0.06035004593003     -1.27105074381883     -0.34640203581621
  H   -0.18173258601102     -2.20645956106482     -0.88598182699889
  N   2.29036011818222     -1.66474571448583     -0.37115584729194
  H   2.12225460893681     -2.39940248353674     -1.03943544052993
  H   3.13849440153744     -1.15858413251079     -0.56576343954608
  H   2.28229876151591      0.17652154998025      1.49611904993834
  H   1.43120664386423      2.35370586330790      1.13926972348221
  H   -1.46426447097452      2.20866737831599     -1.48085157382762
  H   -2.71858424068056      0.88087701878547      0.16635495632325
  H   -1.89622815657353     -2.43008756944117      0.91168503529885
  H   -3.10121406039542     -1.26697190202709      0.86869471529293
