21
Coordinates from ORCA-job ./opt_b97-3c_parallel
  N   3.48222537279011      0.47664635822678     -0.88458415813612
  C   2.38370424511307      0.27540392794088     -0.54546767063977
  C   1.06352862877052      0.06494124629523     -0.12952486301541
  C   0.70147925298481     -1.28164731619300      0.34718432048426
  N   -0.32145196298004     -1.97446253823943     -0.02201406865741
  C   -1.28256920483388     -1.57027973776680     -0.89604204851786
  C   -2.09679758573167     -0.49960019828759     -0.82954122497753
  C   -2.03248206934434      0.48983235783689      0.24263187951418
  N   -0.99208103110805      1.15929224113991      0.61293536347703
  C   0.20069781157621      1.14504390161833     -0.06007167421239
  N   0.55166821233392      2.35330627332373     -0.56601968892528
  H   1.50327852120411      2.50556598434951     -0.85619395759816
  H   0.05721969976478      3.14826408682692     -0.20348557047891
  N   -3.21276511197030      0.75312590346280      0.87043856129531
  H   -3.90803211047581      0.02880914907534      0.88012875784827
  H   -3.16218294840011      1.32897044047672      1.69446412213112
  H   -2.93265568094818     -0.43605983853236     -1.51362773097907
  H   -1.48684324133653     -2.29626963168847     -1.67967714925192
  N   1.57004949827894     -1.84142455076057      1.23309709489180
  H   1.52203531495469     -2.83898020132518      1.34798965820729
  H   2.47090733025770     -1.41647688067972      1.35731145194029
