21
Coordinates from ORCA-job ./opt_b97-3c_parallel
  N   -3.59695071111583     -1.79744912741829      1.46910464639670
  C   -2.74947164633920     -1.24734604378564      0.89791871162165
  C   -1.69901527767912     -0.62760937063956      0.16915918402039
  C   -1.08618815487042     -1.45875862198978     -0.87937976235087
  C   0.20306639235241     -1.74248684143674     -0.99824756013876
  C   1.28101384234666     -1.33336126560060     -0.08634647568076
  N   2.04088077008755     -2.35279879448085      0.35864493622304
  H   1.73308048345738     -3.29959513913575      0.24093317820448
  H   2.80766580947122     -2.18896504175385      0.98992021657500
  C   1.62091715636779     -0.01839889976793      0.15256743948768
  C   2.83492164540046      0.21115695920505      0.83839031157033
  N   3.84096180325067      0.33376600536613      1.40937203524745
  C   0.93895308358157      1.15487137275565     -0.34193221677236
  C   -0.38422574911090      1.45031630539449     -0.29713386098923
  C   -0.80484711153856      2.72383633344106     -0.76731827454547
  N   -1.18328416523708      3.75499335415901     -1.14334088533192
  C   -1.42497795386168      0.67264865529585      0.36599099841842
  H   -2.05327928650007      1.22864027885181      1.05214330245980
  H   1.59034159648597      1.94980925020452     -0.68664494012148
  H   0.52284264485618     -2.38589758140381     -1.81153329565771
  H   -1.78083511940526     -1.89544416176082     -1.58855814543657
