17
Coordinates from ORCA-job ./opt_b97-3c_parallel
  N   3.87967310243376     -0.11719823559109      1.40902054258544
  C   2.88362645456621     -0.02520771230584      0.81910557861215
  C   1.66800985057856      0.03882163605216      0.09242862097767
  C   1.24951841663962     -1.20237405384275     -0.56517050138433
  C   0.03528345575503     -1.76695679828855     -0.50678579546963
  C   -1.13119588110055     -1.28406121041052      0.20278635776105
  C   -1.64269422228307     -0.03864690943017      0.15518966121472
  C   -2.82775277091478      0.29119974991971      0.85511222593906
  N   -3.79713716792787      0.60674992433556      1.41126189053569
  C   -1.15781699305339      0.98899865473959     -0.80985208652110
  N   -0.00893726559810      1.50874805129246     -0.85692294789915
  C   1.02028619007132      1.22204781514286      0.00675362999749
  H   1.41980600445579      2.08874149246081      0.51918483207556
  H   -1.88619466947596      1.31025043758394     -1.55224830482293
  H   -1.67485896930571     -2.02596545125459      0.77835182664214
  H   -0.07038592481589     -2.75597413177226     -0.93970474763158
  H   2.04094162387214     -1.76736016393039     -1.04298005670818
