19
Coordinates from ORCA-job ./opt_b97-3c_parallel
  N   -3.85433782167586     -1.23729213377382     -0.72377219067095
  C   -2.81348937187377     -0.81495605056936     -0.42742994741600
  C   -1.56612641838844     -0.25907128519049     -0.04096073456281
  C   -0.43771371296323     -0.96872078825504     -0.30350960326507
  C   0.92212532799984     -0.65583405543817      0.04315514355745
  C   1.74920824323353     -1.73305867474899      0.42556578928873
  N   2.46987458034958     -2.58544478626017      0.75553359637549
  C   1.52141227355916      0.58918596301921     -0.04551851990572
  N   1.02432130746186      1.64640365315420     -0.79507469513893
  C   -0.01024415567774      2.30766841318703     -0.47905435006261
  C   -0.94103302924547      2.07679679444494      0.62463777723550
  C   -1.66734285183176      0.96564120981103      0.75686374233269
  H   -2.46734008933841      0.96426919879507      1.48940831073617
  H   -1.17968804705666      2.93818319409551      1.23804071267046
  H   -0.24628679332206      3.15318739530735     -1.12663067814002
  N   2.75462224662197      0.83458592297720      0.44372694508675
  H   3.27939487129530      1.58052103687280      0.02203619352466
  H   3.28506533975840      0.07106745140167      0.83015345052472
  H   -0.58464576040633     -1.94913002042990     -0.74065132197069
