20
Coordinates from ORCA-job ./opt_b97-3c_parallel
  N   -0.23441410634267     -2.78301750978890      0.42451893723429
  C   -0.20152659134868     -1.45156944105277      0.08472645562702
  N   -1.30178170245029     -0.79074674672198      0.24990077806370
  C   -1.57190529245605      0.46734764377733     -0.22079802052252
  N   -2.70812881944922      0.48940762398042     -0.99161645351478
  H   -3.33867468844756     -0.27862738589562     -0.83594964693376
  H   -3.15129225560531      1.37941082631726     -1.14202702373352
  C   -0.95042885665004      1.64188234267505      0.12743527123809
  C   0.24563253920817      1.74094974070619      0.88662118596549
  N   1.33384671188277      1.05218726912863      0.82110547119165
  C   1.63378697300027      0.18420377701569     -0.21748284138652
  N   2.73830403003745      0.61879852484597     -0.91118557739014
  H   3.19197466335480     -0.04655745469106     -1.51344660477068
  H   3.36562005988161      1.19505401914886     -0.37585035202566
  C   1.03882712664007     -1.00315803796843     -0.50177039196488
  H   1.55415899034318     -1.71098316712033     -1.13972903404561
  H   0.25816649815862      2.52185328739044      1.64979660568371
  H   -1.51668558430376      2.55882296577810      0.00980901989917
  H   0.62763176348281     -3.18424093596226      0.74985281386082
  H   -1.05699693433616     -3.06889010116256      0.93013193142414
