21
Coordinates from ORCA-job ./opt_b97-3c_parallel
  N   -3.61404939874096      0.00076955832168     -1.19435544188306
  C   -2.54841833843649     -0.15468633180293     -0.75158879398409
  C   -1.26781288267482     -0.29278151311016     -0.17432176516621
  C   -0.59563548286004     -1.46942309258529     -0.35092491423350
  N   0.56028073798354     -1.86815103405469      0.20223956620666
  C   1.63175456703869     -1.13486980013873      0.24191596870546
  N   1.92494988432161     -0.05547008200315     -0.56359103483744
  C   1.39988348965973      1.10410015179132     -0.34227123671083
  N   1.91461757839271      2.17374407800810     -1.01952905779847
  H   2.54936016976577      1.95129238126584     -1.76883324776413
  H   1.29875753994102      2.94935368067513     -1.18817831418540
  C   0.36336803575888      1.43032743727875      0.63011248144971
  C   -0.84099532419797      0.81891804592364      0.70728905232513
  N   -1.79093995726194      1.20959094437256      1.61536313363265
  H   -1.69121917388944      2.11946694659476      2.03127009750716
  H   -2.74356849743022      0.95568796136597      1.41655114039084
  H   0.55387146219538      2.29530024651117      1.25524763081821
  N   2.65414306997201     -1.52713241331422      1.04441103868288
  H   2.59474220242372     -2.45244980951674      1.43274522510421
  H   3.57048801592395     -1.18947978219365      0.81237782472033
  H   -1.10712755558526     -2.23032071118925     -0.93397553048016
