21
Coordinates from ORCA-job ./opt_b97-3c_parallel
  N   4.03687222670398      0.79764621491375     -1.02120710422487
  C   2.98116103457280      0.62301801769491     -0.56023256414406
  C   1.70518692654677      0.37010987588104     -0.02717194264176
  C   1.16346980851088      1.37800050683554      0.87202544635663
  N   -0.03148668596192      1.82185633824562      0.91151667297562
  C   -1.01890325837040      1.52413866839184      0.02681614387859
  C   -1.65381500840038      0.34225084126497     -0.13039764531364
  C   -2.81246310898125      0.26965148586595     -0.93710175772241
  N   -3.77694218375754      0.16119441949378     -1.57729501267533
  C   -1.25223712160697     -0.90300217942073      0.55688506110340
  C   -0.00083078658854     -1.42058576403154      0.51369107096652
  C   1.18751647713594     -0.91554959624060     -0.14125421518819
  N   1.92922740373697     -1.87611256936310     -0.74506477185599
  H   2.78225610896151     -1.63242377610540     -1.22002552511449
  H   1.48788435714378     -2.73483721055276     -1.01481277988014
  H   0.14206719399690     -2.39323395252617      0.97404571853051
  N   -2.26808776354804     -1.53713283893012      1.21381743097985
  H   -2.14420431674136     -2.50056836066970      1.47206427733813
  H   -3.21138780892259     -1.28892784228190      0.97131736638857
  H   -1.38727003645600      2.38532589260270     -0.52169681043558
  H   1.86128975912543      1.81792813003197      1.58216319857857
