19
Coordinates from ORCA-job ./opt_b97-3c_parallel
  N   -2.87108646537093     -1.93040659319272      1.12121423392512
  C   -2.15898026152351     -1.13741501802984      0.65788991317990
  C   -1.26688290847758     -0.21226960016917      0.06557560188862
  C   -1.66525276944911      1.06435626221497     -0.11747753416876
  N   -1.04971438329983      2.02258737032244     -0.86966797777254
  C   0.02707063607965      2.61627909417609     -0.54190010880781
  C   0.91294564318021      2.28981074614729      0.56055778690941
  C   1.45796936467905      1.07520977470112      0.75066349231911
  C   1.24289378299500     -0.16012781314313      0.01288460124976
  C   2.41234463148942     -0.89894046531776     -0.27178127086427
  N   3.34542295377755     -1.54767229199005     -0.52317314221233
  C   0.04646405133544     -0.74642955872455     -0.34855943774434
  N   0.00272743327007     -1.92029589264120     -1.01134698584163
  H   0.84794655164635     -2.44759532612623     -1.15803341122996
  H   -0.86104506049396     -2.42992180975303     -1.06060065699959
  H   2.26996440942514      1.02039083577690      1.46808243450560
  H   1.32311098777148      3.12281798815150      1.11842589173848
  H   0.34367130242431      3.43307885919986     -1.19035568636386
  H   -2.63869765735880      1.36153808399730      0.25868661918902
