20
Coordinates from ORCA-job ./opt_b97-3c_parallel
  N   3.96475402356241     -0.00127028409482     -0.65695670169440
  C   2.83641077299636      0.08277747411849     -0.38414793323320
  C   1.46185691158116      0.13571730826630     -0.06190854002371
  C   0.99408870202108     -0.90436968699635      0.83560738858514
  N   -0.17335491571192     -1.39781963903498      0.96156725789030
  C   -1.15450977298490     -1.33025338281589     -0.01328207804606
  N   -1.38953944164664     -2.55910362888865     -0.56939603884929
  H   -0.73412977458863     -3.28456046261344     -0.33792345043202
  H   -1.76451521453956     -2.59006136297002     -1.50005305432860
  C   -1.96478503296613     -0.27352036714686     -0.29537016118609
  C   -1.71967423602445      1.09532449817992      0.01662326497916
  N   -2.84985724307861      1.86256623816934      0.07759628074132
  H   -3.70896752785094      1.41986353191209      0.34747854050760
  H   -2.76595116373416      2.83141125055559      0.32840651117146
  C   -0.49979822115459      1.76800041556620      0.04686299968974
  C   0.79816776428112      1.34251450208337     -0.23240022756838
  H   1.45420698806306      2.14800359352257     -0.54837233283442
  H   -0.58971341783478      2.84575467802568      0.13748833950045
  H   -2.86999331945975     -0.47355151628504     -0.85680871322407
  H   1.73068644116986     -1.23598869705349      1.56871549995506
