19
Coordinates from ORCA-job ./opt_b97-3c_parallel
  N   -2.69467832657261     -1.06973255508778      0.27802302217619
  C   -1.50269440870142     -0.41140117619493      0.05074855259908
  C   -1.53677372523506      0.95533942910521     -0.11327141497742
  C   -0.54691330209665      1.84926017964899     -0.58495659967706
  C   0.80909560420920      1.89532391127968     -0.43007919376810
  C   1.53910292725590      1.13939602447902      0.54993173718930
  N   1.45239953563788     -0.09427419747580      0.87671414998495
  C   0.90638333347793     -1.05260218009934      0.02620054159210
  C   -0.40413822448984     -1.29993461540052     -0.20690146063482
  H   -0.66552344262100     -2.24347690332803     -0.67334573217055
  N   1.88168784019973     -1.91105448782373     -0.43969374143463
  H   1.73060637755804     -2.30967902551445     -1.34936698261973
  H   2.82491763623549     -1.60823038982730     -0.26842089970575
  H   2.20053597934714      1.73803387008502      1.18264445409940
  H   1.30323218076921      2.79426925003910     -0.77953534101443
  H   -0.96484607229144      2.72698025453202     -1.07292059959108
  H   -2.51908239606763      1.40610159627693     -0.00342696649429
  H   -3.47958238343109     -0.50564716833636      0.55629054779816
  H   -2.62799344798378     -1.94109802315774      0.77462893134870
