20
Coordinates from ORCA-job ./opt_b97-3c_parallel
  N   -3.71025401531224      0.23743132361548      0.48382606999866
  C   -2.57432922769310      0.27193804534847      0.22447662968224
  C   -1.19884365324120      0.26685061495682     -0.07543379285504
  C   -0.51520473571866     -0.92109898096888      0.11832121949643
  N   0.71041280338582     -1.22567001370148     -0.42647469659644
  C   1.80320169298683     -0.64226008108906     -0.09799046209899
  N   2.97282381816027     -1.11878506544129     -0.61186057146075
  H   3.75833518500966     -0.49411113211533     -0.64649656568140
  H   2.89148585184804     -1.76772599551932     -1.37716958937966
  C   1.98119889171710      0.48642241071461      0.84145921339731
  C   1.47089503467877      1.70287356734275      0.63203987218809
  C   0.50606696785970      2.09821343609997     -0.37113269010003
  C   -0.65804677715320      1.48404604925421     -0.64885971228787
  H   -1.33957577661804      2.01546423577033     -1.30467504338299
  H   0.67588552273828      3.06448302851366     -0.83317319182656
  H   1.82279829432394      2.50378989894507      1.27747091816031
  H   2.70098634729915      0.33162638717587      1.63640576597585
  N   -1.09137319712692     -1.97665796636136      0.75297541524239
  H   -0.72531996082448     -2.88236816884172      0.51854485996149
  H   -2.07808002052005     -1.93528155319907      0.95035136096711
