17
Coordinates from ORCA-job ./opt_b97-3c_parallel
  N   3.89820828188374      0.23346764253961     -0.55565143490814
  C   2.75731820875804      0.15452724753389     -0.34417931944612
  C   1.37302363585433      0.01585784309862     -0.09402102159054
  C   0.56790939346894      1.14450604502721     -0.20757082194945
  C   -0.77033949779018      1.40087001347201      0.10208930220656
  C   -1.89141547551400      0.57138849688836      0.08595878783373
  N   -1.97149706821512     -0.62229086087316     -0.58803119751376
  C   -1.06689987937099     -1.50696641746768     -0.42262580615635
  N   -0.20800565572606     -1.66742194072220      0.63240929151415
  C   0.96173568402206     -1.15603551187844      0.64984903312717
  H   1.67359279248115     -1.54421211993344      1.37685669386645
  H   -1.02801785118282     -2.32454769603453     -1.14080700916165
  N   -3.07791647197226      1.01841425873150      0.54577293768372
  H   -3.90766882896030      0.52902066083909      0.26189707335478
  H   -3.18021244631247      1.96619002301124      0.85950542177275
  H   -0.98944961324939      2.44832593062810      0.27651718182537
  H   1.12534196192539      2.03885509983979     -0.46534077355866
