21
Coordinates from ORCA-job ./opt_b97-3c_parallel
  N   -2.85294780702848     -1.09167216527532      1.58936414106069
  C   -1.95785253711227     -0.67567377455707      0.96705168250162
  C   -0.90542051665761     -0.14657780934372      0.20811696184274
  C   -0.04285608572703     -1.11508726544905     -0.51793657830027
  N   1.24037634027892     -1.18393550584526     -0.46648640896850
  C   1.97486417549959     -0.33493743151348      0.33696330771017
  N   2.20489776323624      0.92359729524148      0.14239175985926
  C   1.49573897291286      1.70214515832219     -0.70768165001346
  C   0.15701371175335      1.87108347075239     -0.82399415439030
  C   -0.86933811989723      1.21088690879426     -0.04686063344703
  N   -1.89097212799594      2.01097308327556      0.35567977913247
  H   -1.71061382209960      2.99390224491037      0.44811405594890
  H   -2.60182448147454      1.63413755817922      0.96074072091584
  H   -0.18566729750064      2.67857040818143     -1.45941017437763
  H   2.11218301727340      2.37768664222664     -1.29609939500306
  N   2.61272047609501     -0.96428531968196      1.36222915951122
  H   3.37906607557817     -0.46613454083128      1.78061450118946
  H   2.71285330074268     -1.96032547485395      1.28656008739342
  N   -0.71298155390713     -2.00436139131414     -1.29066900141346
  H   -1.70924317383340     -2.08059019936896     -1.20439518049619
  H   -0.21261142563640     -2.80733937854933     -1.62975174055602
