21
Coordinates from ORCA-job ./opt_b97-3c_parallel
  N   3.09484000475020      0.32393004014148      0.64102315581570
  C   1.78188733584365      0.33157794655630      0.19375459848697
  C   1.29026217522372     -0.97480857304705     -0.14610005684591
  C   0.01313692457528     -1.42253548570439     -0.05117937937128
  N   -1.03714740421932     -0.82699369262976      0.62682260563531
  C   -1.64788502155910      0.20527131379578      0.16496156975456
  C   -1.19712424964251      1.16136510064620     -0.84295333054852
  C   -0.00191929102851      1.79914804548886     -0.80353434442606
  C   1.18534017393803      1.53901688625674     -0.06669466957204
  H   1.78873299477177      2.41818343042019      0.14170459649559
  H   0.04343091483142      2.70900305986021     -1.39963648284468
  H   -1.97848694943287      1.59486107309850     -1.45561231066693
  N   -2.88728316159710      0.49614793379215      0.69350460948448
  H   -3.13546830566382      1.46972005766377      0.74196795832431
  H   -3.11411439105863     -0.03202916822708      1.52095253866183
  N   -0.31300146329999     -2.69758165752835     -0.47771847534687
  H   -1.30129697411419     -2.87792874064364     -0.51611298298398
  H   0.19923720232125     -3.04615177110127     -1.26920668787650
  H   2.04126569451274     -1.67373960515337     -0.49790260399815
  H   3.44678658224607      1.19945894985630      0.99104213515083
  H   3.34243239070213     -0.45803803024163      1.22333722017113
