16
Coordinates from ORCA-job ./opt_b97-3c_parallel
  N   2.28493881241458      0.25996337039227      0.84702278303093
  C   1.20812272977727     -0.12617698809015      0.10226690441278
  N   0.79272094393406     -1.33763964727201      0.14481107459769
  C   -0.42399213866169     -1.72147491290382     -0.35639955516756
  C   -1.63900291150708     -1.17015714213739     -0.13984685397696
  C   -1.94029921916659      0.03735442074436      0.59157134593790
  C   -1.32160416205648      1.23070172324397      0.52028953447480
  C   -0.30081730471177      1.54716072505911     -0.47268659846155
  N   0.76491049972665      0.91080494542676     -0.74863174677166
  H   -0.50726487500363      2.42055190301603     -1.09637574768828
  H   -1.74493898947770      2.07148083314825      1.05785280527136
  H   -2.82980516410549     -0.00682347629193      1.21417910950970
  H   -2.49526423132680     -1.75838494790438     -0.44870152234537
  H   -0.40023433917822     -2.68613519800244     -0.85410542209855
  H   2.85215265760434      0.99533655503329      0.46260188161210
  H   2.78958721583860     -0.49441649596198      1.28057864536263
