19
Coordinates from ORCA-job ./opt_b97-3c_parallel
  N   3.72122727217547      0.27575116851576      0.32452687053638
  C   2.57192072160813      0.29782958973782      0.13089122168813
  C   1.18311799724859      0.28686762857852     -0.07615630991637
  C   0.59074682213363      1.45981018716419     -0.69382967067431
  N   -0.52445157938315      2.02042365603730     -0.41496141022739
  C   -1.34667322110779      1.65461302946192      0.62475223651449
  C   -2.01768611810571      0.50720364186582      0.77987319667174
  C   -1.83992874694302     -0.63826421366439     -0.11785041484180
  N   -0.72562258422173     -1.22251960296265     -0.39870580971417
  C   0.49739087655237     -0.90777042057111      0.12793315995967
  N   1.10046991792564     -1.95254476838950      0.74315785802004
  H   2.08464321503413     -1.89841959841258      0.94789581594738
  H   0.72660389067331     -2.86459290188093      0.55085219918695
  N   -2.98386467464613     -1.16545245905400     -0.62827838900411
  H   -2.88274798221721     -1.87388789172921     -1.33599707391530
  H   -3.78790636275142     -0.56921625274301     -0.70336014938310
  H   -2.78257712244647      0.43085039286366      1.54145196705637
  H   -1.54589731445762      2.47149028600879      1.31247514854306
  H   1.17847418322913      1.93611633577338     -1.47656624204745
