26
Coordinates from ORCA-job ./opt_b97-3c_parallel
  N   -3.82802847097466     -0.75356417748236     -1.60431870354814
  C   -2.84790627824220     -0.56497883040108     -1.00225551388730
  C   -1.67148697459674     -0.27890290220559     -0.29450596437099
  C   -1.31453733464151     -1.15303066105203      0.83569631844740
  N   -0.17549478964413     -1.73457262816991      1.00959518795831
  C   0.82493818471275     -1.72705748215903      0.08761513830743
  N   1.11297017260031     -2.94082769650640     -0.42649045647813
  H   0.68970395540544     -3.73918321973800      0.00965149595553
  H   1.96429096281238     -3.08654783760718     -0.94230482328148
  C   1.60752028556006     -0.62022941695684     -0.23386644886128
  C   2.80425736207913     -0.84348684338120     -0.93496096311570
  N   3.79222275342804     -1.07207483854601     -1.51000748637937
  C   1.37301813612181      0.71821207265712      0.27299988844549
  N   2.46292403278534      1.36919468579635      0.72681181229291
  H   2.44133860444250      2.35952127584951      0.89926427904040
  H   3.35870048401443      0.91812612048023      0.71301781768665
  C   0.14475396736032      1.36963355419070      0.24683654532294
  C   0.09382983582024      2.68251847544646      0.74700347505930
  N   0.09857505767453      3.77461337484238      1.15517707665095
  C   -1.03096986902525      0.92617737785025     -0.50515133615846
  N   -1.52895970038065      1.82190899470996     -1.37946746497020
  H   -1.09232627856866      2.71847746237083     -1.48478380274346
  H   -2.43554880456923      1.69086026601301     -1.79496723442941
  N   -2.30016215383673     -1.38805398627626      1.72432697279288
  H   -3.13273796327437     -0.83054038829302      1.72288030215910
  H   -2.12285461696304     -1.99088920603178      2.50792757670481
