20
Coordinates from ORCA-job ./opt_b97-3c_parallel
  N   3.96513977198308      0.00059853752970     -0.65518361947455
  C   2.83647938123842      0.08392368000108     -0.38346353586731
  C   1.46175588024255      0.13646839314485     -0.06183116085073
  C   0.79752322673547      1.34272660554472     -0.23399039586657
  C   -0.50069731127840      1.76793541556649      0.04449313743178
  C   -1.72024534330948      1.09462543721660      0.01494285301155
  N   -2.85078930227168      1.86140040728225      0.07488643159825
  H   -3.70975014617243      1.41860032060794      0.34507241404166
  H   -2.76739831264459      2.83057967787631      0.32456037976096
  C   -1.96469755468506     -0.27471585419238     -0.29539854936023
  C   -1.15401679853573     -1.33078617756724     -0.01199764003331
  N   -0.17289878344131     -1.39680236746795      0.96300442353455
  C   0.99429457035217     -0.90285157236981      0.83673244735781
  H   1.73092763477022     -1.23329335719954      1.57033697460753
  N   -1.38847405665951     -2.56038702067900     -0.56663069300297
  H   -0.73295847873913     -3.28537644946743     -0.33402282802799
  H   -1.76350059180579     -2.59275474550637     -1.49721217809250
  H   -2.86977399100007     -0.47581314999767     -0.85667588871940
  H   -0.59115123936325      2.84575778511063      0.13374334737141
  H   1.45324550128457      2.14813890636682     -0.55080636041995
