21
Coordinates from ORCA-job ./opt_b97-3c_parallel
  N   -2.81006038601679     -2.30455716681402     -1.17436161294769
  C   -2.06219505277545     -1.54648029867117     -0.70391152164039
  C   -1.20960986517069     -0.57231866290089     -0.14235794868329
  C   0.04755828784974     -1.04909434958881      0.36856350036576
  C   1.25517756761085     -0.43832380587593      0.34462865036559
  C   2.37950605159610     -1.07968970904363      0.90852208144387
  N   3.33823515029488     -1.57758203783426      1.33943338604865
  C   1.54983518157408      0.77909980874531     -0.47701630489454
  N   1.05268168756146      1.94598566732349     -0.30926440312238
  C   0.12767446196884      2.25356316097268      0.64450680813528
  C   -1.11169894330295      1.76135729612589      0.81310356741323
  C   -1.75281642872616      0.69248876933870      0.06663339177482
  N   -3.02915667746303      0.94157725862687     -0.28683566369210
  H   -3.39569813585574      1.87135394599217     -0.21548854944771
  H   -3.58370055737206      0.25265047046802     -0.76689916757416
  H   -1.75107753015010      2.26472365183258      1.52824871736032
  H   0.40430755833408      3.10593525571591      1.25902437209191
  N   2.41976270489971      0.55596543579027     -1.49256812474403
  H   2.99351664399784     -0.26750642394134     -1.47991027801676
  H   2.79069560455010      1.36132329782325     -1.96645445947726
  H   0.02854542989522     -2.05637147058503      0.77144341154089
