16
Coordinates from ORCA-job ./opt_b97-3c_parallel
  N   2.42035752947543      0.13940007675904      1.10637288563723
  C   1.48907372335749     -0.10413763527476      0.15581598530573
  N   1.25097932802689      0.98017451349515     -0.68114936096536
  C   0.09776363311654      1.55268919710359     -0.71416379572127
  N   -1.01073328358352      1.30498042382692      0.02718373552868
  C   -1.48895819163840      0.10398549034283      0.15579132066142
  N   -1.25082244099658     -0.97993122847930     -0.68167384844037
  C   -0.09760508401353     -1.55243015402748     -0.71490134629069
  N   1.01085491538393     -1.30507158171054      0.02661824497554
  H   -0.02193078621421     -2.41804135724891     -1.36940257902345
  N   -2.42028875642971     -0.14000055447328      1.10618754378255
  H   -2.80294426198710      0.65321891833242      1.58941558040526
  H   -3.01942910136794     -0.93414603086344      0.97384030758782
  H   0.02212189776272      2.41860909417460     -1.36826027949001
  H   2.80298992797139     -0.65404737071587      1.58924483286372
  H   3.01950447173647      0.93360776195904      0.97442902888316
