27
Coordinates from ORCA-job ./opt_b97-3c_parallel
  N   -3.69067780319626     -0.52589881121503     -1.78491694390657
  C   -2.74955778534134     -0.45536702321911     -1.10039305936399
  C   -1.62385221057806     -0.41689667949360     -0.25761500450750
  C   -1.15502668507140     -1.61956637137292      0.25880636061608
  C   -0.02121434764547     -1.77389943440110      1.12319073122965
  C   1.23089691095020     -1.29300126390829      0.90719541171633
  N   2.26410269710471     -1.65144625829196      1.72748989292768
  H   3.19974929377395     -1.46754435259502      1.41190406687457
  H   2.16586712082820     -2.47273018587528      2.29866995685089
  C   1.62455628197112     -0.42923186095289     -0.21394066390561
  C   2.73166469158332     -0.85408070971714     -0.96946951990073
  N   3.66242085181745     -1.16844208269128     -1.59695475635986
  C   1.13909066264613      0.84215140568549     -0.42323172303094
  N   1.72853715214480      1.67334781403453     -1.30771681153332
  H   2.61767557085385      1.44671300733151     -1.71912659555477
  H   1.38994298722173      2.61047237355646     -1.41794385313232
  C   0.01156973310397      1.41377213280103      0.31246598809276
  C   0.18887953421846      2.70913018089072      0.83162154610527
  N   0.28449539980753      3.79082899220959      1.25444364925944
  C   -1.26982816250797      0.89644495033905      0.28108138607121
  N   -2.31078745023111      1.63613370498903      0.71501452460976
  H   -2.20249964813603      2.61591317289223      0.91561724966215
  H   -3.24438896627823      1.27793955988814      0.63895537323807
  H   -0.15830219877325     -2.47674179759745      1.93811929439514
  N   -1.87086709902831     -2.75650182944610      0.05079444345187
  H   -1.39005788772344     -3.63521710770114      0.11052665284096
  H   -2.67101995791488     -2.73221514923905     -0.55959758384607
