17
Coordinates from ORCA-job ./opt_b97-3c_parallel
  N   -2.00572343889407     -3.11173854460216      0.00022049507712
  C   -1.16451568121470     -2.31105203770945      0.00017139227949
  C   -0.16428737028373     -1.32777583439777      0.00008364774526
  C   1.18192425434982     -1.53239280568446      0.00006516448716
  C   1.86609684986908     -0.21444390530102     -0.00003929295730
  C   3.26003342777747     -0.05408888191018     -0.00007411312901
  N   4.41536395795102      0.06790844754934     -0.00004606703540
  C   0.91124064183497      0.76368952070760     -0.00008731915745
  C   -0.37683064182756      0.12372162709647     -0.00001137302644
  C   -1.32894141889448      1.09881656017682     -0.00005146643755
  C   -2.72264388748040      0.95766990952820     -0.00000117281080
  N   -3.88224522488069      0.88014110342475      0.00004013636293
  C   -0.62150337929216      2.42442254851161     -0.00015843287022
  C   0.70859976282746      2.20993032824686     -0.00018051084641
  H   1.48369113867060      2.95788850118936     -0.00025118816256
  H   -1.13946315565678      3.36831910917630     -0.00020754801774
  H   1.69010171464416     -2.48097662110228      0.00011868759891
