18
Coordinates from ORCA-job ./opt_b97-3c_parallel
  N   -3.60322202852623     -2.18252767864833     -0.00031625081529
  C   -2.49366378757083     -1.83952909049891     -0.00015772243853
  C   -1.16190723953778     -1.40111534824871     -0.00011532245741
  C   -0.04216909951113     -2.17694913000286     -0.00023387540581
  C   1.14977871193414     -1.29453267225301     -0.00015075946317
  C   2.46902203183929     -1.76954753878469     -0.00024932791199
  N   3.55117847921469     -2.19196366630713     -0.00040748227605
  C   0.71432032476453      0.00269952669471      0.00002423917526
  C   -0.71430207527476     -0.00267244383698      0.00005385966746
  C   -1.14976042931581      1.29455956402183      0.00023233073911
  C   -2.46900368704623      1.76957336932438      0.00032589814017
  N   -3.55116104805630      2.19198798566966      0.00040957113054
  C   0.04218713372112      2.17697587427319      0.00031690782495
  C   1.16192538123125      1.40114208957357      0.00019813253550
  C   2.49368253264647      1.83955491917015      0.00023321960883
  N   3.60324134338347      2.18255118592684      0.00030768053979
  H   0.00023364883479      3.25207336705512      0.00045447316474
  H   -0.00021557493069     -3.25204678992884     -0.00037066085811
