19
Coordinates from ORCA-job ./opt_b97-3c_parallel
  N   -4.05679853445971      0.12143897351969     -0.09642805019264
  C   -2.91655460459245     -0.12714726837077     -0.08410464868790
  C   -1.53792986446360     -0.32542389769001     -0.06506271227954
  C   -0.80779311842695     -1.54179700841659     -0.03594497430611
  C   0.54711592059535     -1.23741253229839      0.03883980712990
  C   0.69706415603104      0.18495285200178      0.04529713097169
  C   -0.59301813224352      0.75644294508942      0.00045118639330
  N   -0.94107727069555      2.06261391726638     -0.01161856616029
  H   -1.92041933326272      2.27514701492471      0.09709361292321
  H   -0.32172402454729      2.73047375176043      0.41143777585760
  C   2.07783064342133      0.46568175859470      0.03062524849602
  C   2.77913239660656     -0.78886372358744      0.06221867471515
  C   1.84588585317741     -1.81126174933598      0.05791131881043
  H   2.08041157358688     -2.86517306076164      0.05864157768964
  H   3.85236377907102     -0.89423490416560      0.07480427173532
  N   2.67787277781209      1.68084936800670      0.01423805928497
  H   3.66008045898364      1.71182696844359     -0.19787944873306
  H   2.15950026754209      2.46492011977409     -0.34079092149208
  H   -1.26212229563556     -2.52014009165509     -0.06291954525560
