16
Coordinates from ORCA-job ./opt_b97-3c_parallel
  N   4.72373450187082     -0.03765470458126      0.00013899372956
  C   3.56305180333200      0.02459634677774     -0.00027127746132
  C   2.16117202223927      0.06560734704013     -0.00025141485548
  C   1.29213561647897     -1.14582536975263      0.00006050005548
  C   0.00495384246121     -0.72499618635079      0.00006366351545
  C   -0.00495422547154      0.72482689506870     -0.00023655716119
  C   1.36945977053428      1.18092103345964     -0.00044701227668
  H   1.71693446583205      2.20058669749109     -0.00069912283150
  C   -1.29213372382320      1.14565506202340     -0.00018773629984
  C   -2.16116679239140     -0.06577579289855      0.00013108244728
  C   -3.56304323521106     -0.02477616614490      0.00021934418915
  N   -4.72372900282853      0.03744214751084      0.00012185028435
  C   -1.36945512395687     -1.18108905008312      0.00028804254912
  H   -1.71692944011554     -2.20075339680817      0.00052494407331
  H   -1.67704331040166      2.15391531070100     -0.00034161564077
  H   1.67704672175117     -2.15408854265312      0.00025989178307
