18
Coordinates from ORCA-job ./opt_b97-3c_parallel
  N   4.90290132099501      0.05189286501864      0.00036018586429
  C   3.74126454994915      0.00049691936837      0.00008364792791
  C   2.33961406191462     -0.06719032289979     -0.00013277365341
  C   1.56351360708627     -1.27853987859879     -0.00016780988230
  C   0.23049852742781     -0.91117536607575     -0.00038656272739
  C   0.15362711943279      0.51809510844078     -0.00049476385528
  C   1.46679056937139      1.03162179543309     -0.00033804452627
  H   1.78257588032048      2.06287158517766     -0.00036242911792
  C   -1.20122179338357      0.86674796133556     -0.00072495700375
  C   -1.98663673310260     -0.39183782024969     -0.00076026029990
  C   -3.38115892274775     -0.40136253437038     -0.00096823907962
  N   -4.54271688233083     -0.30843003595141     -0.00117611357954
  C   -1.09324808253695     -1.44231465599704     -0.00054913892147
  H   -1.37406019263241     -2.48395776215403     -0.00051945902132
  N   -1.78525335491321      2.05502738250569     -0.00089435100952
  H   -1.25005272377162      2.90475578323762     -0.00086992785081
  H   -2.78938881050556      2.13318333499937     -0.00105443354940
  H   1.98197828922697     -2.27221533061988     -0.00003956031428
