17
Coordinates from ORCA-job ./opt_b97-3c_parallel
  N   -4.24048119158515     -0.83238243376020     -0.00037143143108
  C   -3.18101943442569     -0.35154104483401     -0.00038100442628
  C   -1.92860008223521      0.26569730063096     -0.00029318629666
  C   -0.69009961129003     -0.29654794618716     -0.00041179849572
  C   0.30538773880409      0.80342395529561     -0.00021841842200
  C   1.51415574337815      0.20103933176934     -0.00036246787366
  C   2.81352580558245      0.71089514713570     -0.00030916594461
  N   3.92549424481508      1.05413016194418     -0.00067639484500
  C   1.18031008099509     -1.28979588745693     -0.00061090928310
  N   -0.10492012149370     -1.53821223759525     -0.00064169861536
  N   2.13951696477502     -2.20948044484421     -0.00076397649302
  H   3.11052183992787     -1.95318842960867     -0.00083753293337
  H   1.89305476544401     -3.18427584341804     -0.00098326193416
  C   -0.40322748459137      2.06527580951377      0.00002097185482
  C   -1.71740733275793      1.75747977719040     -0.00002486142869
  H   -2.53896667566165      2.45657805865909      0.00011079705459
  H   0.03280304061898      3.04934691686541      0.00019784711334
