18
Coordinates from ORCA-job ./opt_b97-3c_parallel
  N   -4.23886190234937     -0.52387049147851     -0.00088921574017
  C   -3.09154793498950     -0.71419166724080     -0.00042382308355
  C   -1.72448848701740     -0.99935648947923     -0.00022330726080
  C   -0.64241909574784     -0.17381192165818      0.00010251694399
  C   0.52575802501277     -1.07914999942228      0.00000352944744
  N   0.16149014599663     -2.42346805330038     -0.00030481953902
  C   -1.13596025392500     -2.38470611036152     -0.00043370143355
  H   -1.73370144103113     -3.28641648644836     -0.00066417012514
  C   1.66493116679865     -0.35078413797010      0.00022045473198
  C   3.00884119226509     -0.72894737257888      0.00018585921395
  N   4.15187271276833     -0.94295991014280     -0.00006221730490
  C   1.22424953078833      1.09187087661098      0.00055372829660
  C   -0.16785205715796      1.17175191793741      0.00046440465704
  C   -0.86956493512511      2.38022006110625      0.00071122968015
  N   -1.38030563846387      3.42540619407346      0.00090032827134
  N   2.10265166812592      2.08094310184285      0.00087668794886
  H   1.79493561327710      3.04016325257827      0.00109204917610
  H   3.09263707817438      1.90085098783185      0.00087400601967
