13
Coordinates from ORCA-job ./opt_b97-3c_parallel
  N   3.43780050601079      0.80906036099453      0.00090889291154
  C   2.34778130963362      0.40352367609628      0.00069843846368
  C   1.05651514489078     -0.13045333319891      0.00071210770568
  C   -0.14974206388721      0.46686880512459      0.00125660160985
  C   -1.13695974033261     -0.63275123708306      0.00063612448147
  N   -0.51449931510636     -1.91060121019883     -0.00004395371136
  C   0.73669171421440     -1.64373413254237     -0.00001632510439
  H   1.50334465349571     -2.40680020732630     -0.00047030996087
  N   -2.35245362195412     -0.24121311349831      0.00045965936307
  C   -2.22990668441258      1.22191276427402      0.00117589702505
  C   -0.95531599780295      1.66777079601419      0.00162119219839
  H   -0.61995927242205      2.69019396170553      0.00216036755785
  H   -3.13949641072743      1.79985578863866      0.00124754066004
