18
Coordinates from ORCA-job ./opt_b97-3c_parallel
  N   -3.18476365699319     -1.85384585631275     -0.00053542240669
  C   -2.45863094581006     -0.94505325292158     -0.00035221321992
  C   -1.62787606570661      0.18025614292542     -0.00014613265665
  C   -2.14133142140879      1.60084095465227      0.00007664275645
  C   -1.11225428626452      2.46450723054223      0.00025616084091
  C   0.11143311631464      1.66763946740206      0.00015396240891
  C   -0.27115092258065      0.24123058495405     -0.00009097429704
  C   0.93589173222631     -0.54580368016682     -0.00022394383544
  C   1.11373304286808     -1.92882902529548     -0.00054039860967
  N   1.35033045119685     -3.06930158027226     -0.00096839171364
  C   1.98413904992498      0.36625578166171     -0.00005505024147
  C   1.45146816061031      1.75759898953161      0.00018069067439
  H   2.07199773262173      2.64141531425442      0.00038804289014
  N   3.29189602673957      0.09631001775737      0.00023635800012
  H   3.98040381634672      0.82443211448188     -0.00101474505877
  H   3.61535728929262     -0.85642068523062     -0.00060682195375
  H   -1.17111956536959      3.53993605887589      0.00043276476215
  H   -3.19273102420839      1.83957356866062      0.00008358695996
