12
Coordinates from ORCA-job ./opt_b97-3c_parallel
  N   -3.41045480966698     -0.82602184878316     -0.01010734420086
  C   -2.31845577274756     -0.42650613132198     -0.00547309353303
  C   -1.03251734364771      0.11442166019808      0.00053343886877
  C   0.18938667603737     -0.44660091054377     -0.00239162164720
  C   1.15721569845878      0.65690744428285      0.00803988768085
  N   2.36256285437637      0.22769969153306      0.00665263591193
  C   2.12522892865951     -1.22425396993255     -0.00546695895196
  N   0.89870942081830     -1.64476972883018     -0.01089125508338
  H   2.97991929184966     -1.88405790428531     -0.00937890349486
  N   0.52330151058827      1.92785945835349      0.01738040467973
  C   -0.72418247631108      1.63454724112458      0.01324531746601
  H   -1.50302070161492      2.38563293960488      0.01819930530403
