14
Coordinates from ORCA-job ./opt_b97-3c_parallel
  N   -2.90115924997878     -1.82030927581580     -0.00136282250576
  C   -1.90920022315367     -1.21080708866400     -0.00122149839165
  C   -0.79033458240843     -0.38150577880571     -0.00125992499526
  C   0.54146229004294     -0.59375455600416     -0.00046933285019
  C   1.18267708605997      0.76140066580460     -0.00109940989748
  N   2.47491180454461      0.63704084933828     -0.00038452751701
  C   2.60708228227607     -0.77712753937190      0.00066128873637
  N   1.53043500018789     -1.54100974981731      0.00066873202122
  H   3.59984451552702     -1.20560485204417      0.00144076604452
  N   0.27813480244182      1.78275371496370     -0.00224173362435
  C   -0.87970530357047      1.15228871512532     -0.00236218286991
  N   -2.05279830504757      1.75357153168356     -0.00334294852877
  H   -2.09741098339630      2.75942096186055     -0.00406337019081
  H   -2.90963191032509      1.22603056834705     -0.00340020183093
