15
Coordinates from ORCA-job ./opt_b97-3c_parallel
  N   -3.03723164776789     -0.04451574727335      0.11275626827453
  C   -1.68687599675962      0.09998210646877      0.03225971952496
  C   -0.93114774649108      1.23588034884666      0.02108732642618
  C   0.44480817281664      0.80115276427416      0.01042589130589
  C   0.45357225107078     -0.67868803805959      0.01497228435286
  N   1.76861217213333     -1.19786211029303     -0.00057108286279
  C   2.50229695272063     -0.12719430055601     -0.01581098763640
  C   1.74629781562129      1.15962444870861     -0.00979471276983
  H   2.19333888242619      2.14151727741545     -0.01772068715140
  H   3.58381671887599     -0.19787583075929     -0.03108779150868
  C   -0.80438076055525     -1.12788839218032      0.03096808900857
  H   -1.16767242196815     -2.14468325748489      0.05044120444743
  H   -1.29628510898511      2.24949585179386      0.02212313965949
  H   -3.60670218129085      0.76610043364691     -0.05940093545357
  H   -3.43679316354691     -0.90601863794797     -0.21582685221723
