16
Coordinates from ORCA-job ./opt_b97-3c_parallel
  N   3.54728491974434      1.44444289922017     -0.00014286857598
  C   2.50724777235203      0.92286209943122     -0.00010692601821
  C   1.21545705434197      0.39297835608842     -0.00022072631385
  C   0.74971386861779     -0.95151180290165     -0.00049318138095
  C   -0.75047459896730     -0.94270403973803     -0.00048290137010
  N   -1.19097700145856     -2.23840920421141     -0.00074970983495
  C   -0.05185648452290     -2.90048046300460     -0.00089096962182
  N   1.17547752772748     -2.17933217322038     -0.00074624790964
  H   -0.02304800572948     -3.98114713689861     -0.00111585274197
  C   -1.19406553113338      0.33538878532770     -0.00020991288348
  C   -2.46895129465021      0.89900027229838     -0.00007875049735
  N   -3.48812324555923      1.46141439241331     -0.00000921434338
  C   0.05987742388810      1.18451090916441     -0.00003398610293
  N   -0.01157947734661      2.49779778213813      0.00025037540380
  H   0.82629295325895      3.05899653193970      0.00035701156275
  H   -0.90111932276299      2.97106505915325      0.00035156562804
