17
Coordinates from ORCA-job ./opt_b97-3c_parallel
  N   -3.44847577838731     -0.06710852209331     -0.05582240891733
  C   -2.10360315114229      0.07044791118505     -0.00237857128610
  C   -1.36946853738359      1.23455126440544      0.00184349746407
  C   -0.00180379212286      0.82639366363532      0.00869427694911
  C   0.03739694226246     -0.67659633601628      0.01055957546988
  N   1.33255908840128     -1.16100560337827      0.01727501286998
  C   2.06094160161648     -0.06336039475286      0.02449730704862
  C   1.29239155465262      1.21259584373493      0.02076077455145
  H   1.72453425962902      2.20136078505930      0.03249332775562
  N   3.40312715191794     -0.09315662101779      0.06827465421395
  H   3.93325798849956      0.73526225615111     -0.12515619153124
  H   3.85889362261042     -0.98054995553770     -0.05551199583890
  C   -1.22516041851311     -1.13842896820652     -0.00039167851881
  H   -1.58242296434763     -2.15631425274152     -0.01530347047884
  H   -1.76095839361019      2.23827161918317      0.00120232615033
  H   -4.02589202622865      0.73722899488690      0.11411286506461
  H   -3.85266842535410     -0.94873382869699      0.20307722943362
