14
Coordinates from ORCA-job ./opt_b97-3c_parallel
  N   -3.00238878006216      0.00799737482797     -0.00366495350127
  C   -1.66800666947186     -0.09790881529533     -0.00250902383638
  C   -0.88788938092299     -1.22785838636046     -0.00256432771227
  C   0.45486255418930     -0.74773329529758     -0.00120970251639
  C   0.43803644755355      0.74891426726514     -0.00037057402599
  N   1.76222021728005      1.19464378356306      0.00089199141442
  C   2.41634595497990      0.06817749849870      0.00078327354542
  N   1.68603620735302     -1.17081263967228     -0.00046106425196
  H   3.49743262070844      0.03116355636348      0.00159322841860
  C   -0.82492977778116      1.17219516834089     -0.00112335617421
  H   -1.23333689048500      2.17153186160352     -0.00093086005173
  H   -1.22654700872758     -2.24958672065788     -0.00342149498286
  H   -3.59140185295560     -0.80499363527470     -0.00413009737748
  H   -3.45261509805790      0.90352407309549     -0.00266993464791
