17
Coordinates from ORCA-job ./opt_b97-3c_parallel
  N   -1.82847271214945     -1.86357072585713      0.06290253276338
  C   -1.32199628364657     -0.60636751151166      0.03901456677172
  N   -2.16177564101427      0.45838669605998      0.10376338330347
  C   -1.35948905089642      1.55870183131613      0.07233688063255
  C   -0.00836137223159      1.22632181375933     -0.01551807975866
  C   0.03730908665722     -0.19745021118422     -0.02021109509877
  C   1.38965702236122     -0.58079269869104     -0.03117053887538
  N   1.90120901196054     -1.84085132029527     -0.03472056437186
  H   1.33000479994791     -2.57696813816013      0.34255498451525
  H   2.87781924425668     -1.93867785676823      0.18378777657891
  C   2.18215939188406      0.62081915606456     -0.07266281025580
  C   1.32891221733043      1.70973512382699     -0.05522954279030
  H   1.64147793715303      2.74333935158536     -0.06182466541839
  H   3.26070255726431      0.64614258977860     -0.10100822194553
  H   -1.80734411597716      2.54185355147873      0.11138258905672
  H   -2.82545421334325     -1.91577653007858     -0.07228389199052
  H   -1.30329050235669     -2.59353952652340     -0.38506312601683
