20
Coordinates from ORCA-job ./opt_b97-3c_parallel
  N   3.94039224223298      1.61266992184999      0.00037213385251
  C   2.94352832849165      1.00662039029340      0.00073770729238
  C   1.79134753680725      0.22735139416492      0.00093155015690
  C   0.41658763928305      0.62314957442273      0.00099460087879
  C   -0.41654827917933     -0.62320687417053      0.00100405431017
  C   0.40404825491940     -1.69595471858202      0.00098995527998
  C   1.78049452020282     -1.17642310850501      0.00094763332886
  N   2.85385597796963     -1.96137555710184      0.00096308899626
  H   2.77257248376937     -2.96083435522584      0.00083568577188
  H   3.77824226793603     -1.56371384628260      0.00084331862549
  H   0.14659718057914     -2.74310120530579      0.00100131502959
  C   -1.79130866034793     -0.22740941340847      0.00104592683611
  C   -2.94348921979799     -1.00668005561912      0.00118559413068
  N   -3.94035091843278     -1.61273225617598      0.00139472895786
  C   -1.78045647164301      1.17636529071404      0.00107601729932
  C   -0.40400911434309      1.69589745377897      0.00104270514836
  H   -0.14655806246014      2.74304436044230      0.00106968305723
  N   -2.85381701073151      1.96131753254687      0.00117856319719
  H   -2.77253336266367      2.96077485155935      0.00113237786783
  H   -3.77820241069188      1.56365704520465      0.00114362628264
