19
Coordinates from ORCA-job ./opt_b97-3c_parallel
  N   4.00804936776943      1.48451154690118     -0.00440900404606
  C   2.96123365664507      0.97105346246278     -0.00427466880817
  C   1.75538768453721      0.27698916493523     -0.00423101593159
  C   0.44601244330590      0.70323203834725     -0.00320248232220
  C   -0.36483340535594     -0.57099496781778     -0.00385884308351
  N   0.39787833089106     -1.67904626279848     -0.00516248211701
  C   1.65109702541010     -1.19829302055126     -0.00540109880719
  N   2.70628008415301     -1.99309632635932     -0.00659464656452
  H   3.63911581547939     -1.61787262718205     -0.00676366784246
  H   2.57577854074662     -2.99020014613098     -0.00735544217314
  C   -1.69330214806676     -0.23270932294518     -0.00292967407800
  C   -2.85279018265917     -1.00119587915743     -0.00297814602262
  N   -3.87942761615250     -1.55344075423450     -0.00321190079970
  C   -1.71380178624601      1.25235949091392     -0.00164180427805
  C   -0.41826001826925      1.79166369387576     -0.00184078770763
  H   -0.17262989094595      2.83993036954092     -0.00109155426912
  N   -2.86444230604695      1.90946497352543     -0.00049567245422
  H   -3.73845082014351      1.40926536171739     -0.00051599890193
  H   -2.89726625175176      2.91310981515709      0.00036473400710
