18
Coordinates from ORCA-job ./opt_b97-3c_parallel
  N   -2.92936951277712     -2.28747593335078     -0.00148087878416
  C   -2.11489445373174     -1.45123103901151     -0.00083705235892
  C   -1.19747801713667     -0.40667520500362     -0.00022910887200
  C   0.23238993095991     -0.42699413452022      0.00026344377620
  C   0.70679763203150      0.99726314471046      0.00051859198042
  N   2.07319782575243      1.08327334048733      0.00098539428560
  C   2.45348322111560     -0.18760778733270      0.00100430555142
  C   1.34766478739546     -1.18204906411665      0.00055407844356
  H   1.46205217539308     -2.25391546195233      0.00052062422421
  N   3.73903393000160     -0.53956947199142      0.00142885815230
  H   4.44496293374805      0.17576073238260      0.00164476321895
  H   4.02183761990118     -1.50076488535598      0.00129677605085
  C   -0.36696036409964      1.82208811069265      0.00021003483791
  C   -1.55009359677318      0.95556709044291     -0.00027740967286
  N   -2.79598288149223      1.42579513777360     -0.00038413765829
  H   -2.98450324445343      2.41024489439926     -0.00190864557982
  H   -3.57922965350612      0.79444367865811     -0.00161658208594
  H   -0.39396390722865      2.89987385038830      0.00036872919055
