18
Coordinates from ORCA-job ./opt_b97-3c_parallel
  N   -2.91366552896095     -2.25029830815442     -0.00032367986884
  C   -2.06764296608556     -1.44664243963721     -0.00009219609377
  C   -1.12648994974343     -0.42305243310079     -0.00031492843867
  C   0.24525047604315     -0.43548270925170     -0.00002144031771
  C   0.64142014838285      1.02536188965824     -0.00051913288974
  N   -0.44646943113894      1.85712298040641     -0.00103559458016
  C   -1.47901018328836      1.03087346922109     -0.00090703071508
  N   -2.74279440318782      1.44067852366737     -0.00125980285045
  H   -3.50013744565298      0.78103601446240     -0.00129059918995
  H   -2.94611442934770      2.42438062858772     -0.00175935964683
  C   1.98877509751911      1.10297710527346     -0.00030647672197
  C   2.46204090126908     -0.29691340528296      0.00032976281956
  C   1.40437925548844     -1.21399156464294      0.00049883228835
  H   1.49117611762094     -2.28705672203191      0.00093677075903
  N   3.76450689743506     -0.58909719736375      0.00069056851792
  H   4.08567633842132     -1.54015662404972      0.00109025485538
  H   4.45908775436105      0.13418582927866      0.00048196008148
  H   2.62501914026473      1.97259812336000     -0.00052636320857
