18
Coordinates from ORCA-job ./opt_b97-3c_parallel
  N   3.93538682458864      1.51856934500313     -0.00103928272112
  C   2.89363912456943      0.99814788964039     -0.00129032543429
  C   1.70398152467904      0.27421291924822     -0.00131893813688
  C   0.38609852512596      0.64341704628026     -0.00107792951680
  C   -0.38574853643125     -0.64331359769525     -0.00127098504958
  N   0.40494078861132     -1.73309243178913     -0.00163667271880
  C   1.64037573894699     -1.21284466602123     -0.00167907063735
  N   2.72368289219108     -1.96727765715204     -0.00200765787746
  H   3.64247184054906     -1.55829902081304     -0.00200294843435
  H   2.63020111908973     -2.96884963363686     -0.00222542304815
  C   -1.70363149263884     -0.27410947028054     -0.00099956348402
  C   -2.89328973976894     -0.99804344477357     -0.00099638930526
  N   -3.93503945041152     -1.51846096007148     -0.00094648549863
  C   -1.64002570790149      1.21294817910769     -0.00066963057557
  N   -0.40459073959395      1.73319591732854     -0.00072211879882
  N   -2.72333294462412      1.96738102919634     -0.00034717646732
  H   -3.64212182588335      1.55840220280124     -0.00030825521560
  H   -2.62985129729783      2.96895300382731     -0.00013110968003
