28
Coordinates from ORCA-job ./opt_b97-3c_parallel
  N   -3.73080794719838     -0.99369103015478     -0.12906324358803
  C   -2.78856482181849      0.03119552102459     -0.08357048272458
  C   -3.05910188342661      1.41313215460084     -0.00174962013456
  C   -1.84592205438644      2.09745267859515      0.03940760014597
  C   -0.79008867990240      1.16081477798070     -0.02402613473495
  C   -1.38525158625681     -0.14985341033970     -0.07653927152738
  C   -0.60365730324071     -1.31601249461304      0.00305226015929
  N   -1.19985265686267     -2.55658100687843      0.06523127243217
  H   -0.59732735412306     -3.30015603814184      0.37537686502192
  H   -2.09320280118498     -2.56896073160595      0.53440805476729
  C   0.79029622401348     -1.16119151782537     -0.02440620480921
  C   1.84611955307496     -2.09785795175439      0.03879402627938
  C   3.05930664320177     -1.41351915397091     -0.00186029514323
  C   2.78878309127718     -0.03154585183119     -0.08310570216398
  N   3.73103202783254      0.99336163024726     -0.12800240650055
  H   4.67426840549971      0.65537832071208     -0.24052310672363
  H   3.53156109322610      1.68887980360277     -0.83324228173809
  C   1.38546895743762      0.14950018260409     -0.07621836748932
  C   0.60386020930878      1.31562293111746      0.00376286130836
  N   1.20004496857827      2.55616301001600      0.06661466089003
  H   0.59746480625498      3.29959687316359      0.37699428652748
  H   2.09331387845738      2.56832724577406      0.53595272715318
  H   4.04274614947349     -1.85926672024721     -0.00289622903072
  H   1.75085631889677     -3.17378168557391      0.06525561891308
  H   -1.75066289994984      3.17336400830605      0.06636599962101
  H   -4.04254103621920      1.85887932867483     -0.00274503369935
  H   -3.53123874384959     -1.68889520940212     -0.83458521629168
  H   -4.67402775091382     -0.65565598728060     -0.24156825821988
