20
Coordinates from ORCA-job ./opt_b97-3c_parallel
  N   4.02750510303936      2.21882673524378     -0.00298280374602
  C   3.38072518766238      1.25241553452828     -0.00211076927577
  C   2.58912800301670      0.10076699037657     -0.00107503619053
  C   1.10570131022653      0.07628163658971      0.00043449152684
  N   0.29143501065431      1.07724807002418      0.00100931691338
  C   -1.02690546515844      0.66567869429873      0.00238148434768
  C   -2.16384129792204      1.39357014735621      0.00331898820867
  C   -3.24648082931234      0.38280724265350      0.00449664550928
  N   -2.82079320262223     -0.86119498173466      0.00440410880108
  C   -1.44583575683079     -0.76335585049752      0.00317734190928
  N   -0.60542747675142     -1.75607327485345      0.00252086247315
  C   0.70066870050903     -1.34599554396851      0.00109273195770
  C   1.84229098981469     -2.09093578621062      0.00008492487297
  C   2.99515281520183     -1.19969494260953     -0.00124165945441
  H   4.02171147109464     -1.52876968274754     -0.00223264179490
  H   1.89455068026068     -3.16794690284689      0.00023088984059
  N   -4.54335636673894      0.71186398962566      0.00708636777465
  H   -5.23405730592971     -0.01826883457832      0.00342182945777
  H   -4.84806072262476      1.66611317650060     -0.00029638821484
  H   -2.27011708938951      2.46722769284983      0.00337240848344
