25
Coordinates from ORCA-job ./opt_b97-3c_parallel
  N   0.03083112456628      4.07477271935910      0.00626975656310
  C   0.05467299926956      2.91280726803571      0.00541674469963
  C   0.05768342507598      1.50261348625562      0.00532553155310
  C   1.22254638969023      0.77566015727096     -0.00116018389302
  C   2.59090532489062      1.16706066835755     -0.00033568867397
  C   3.33908986911594      0.01560949006052      0.00147005740205
  C   2.44181444234072     -1.15985313539773     -0.00139830301688
  C   1.16773961891428     -0.70750217568155     -0.00013137009132
  C   -0.08313216287387     -1.42309194027961      0.00182882572371
  C   -0.07120470108183     -2.83449785018817      0.00305896179356
  N   0.01407456794923     -3.99246180553551      0.00427355307673
  C   -1.23989030110576     -0.69149224662139      0.00706039917776
  N   -2.53647444210173     -1.14400172601965      0.00794218191351
  C   -3.27307922669927     -0.04992635847231      0.00832272374733
  C   -2.48139974255866      1.19271063042873      0.00803366008855
  C   -1.19045964315413      0.78390773137958      0.00577223603511
  H   -2.85873941242605      2.20323159133923      0.01140200839570
  N   -4.61132098061337     -0.07598372825332      0.02567259291223
  H   -5.15350373418143      0.76174378719391     -0.06212090065571
  H   -5.08173326485129     -0.96241671917319     -0.02801377433257
  H   2.76490736565271     -2.18967702610575     -0.00967297855710
  N   4.68042786445023     -0.12823606772807     -0.03655998096987
  H   5.09107543000974     -1.01969203230708      0.17136702876981
  H   5.27138900997172      0.67189834844937      0.10037316565837
  H   2.95301563815016      2.18113505723303     -0.00092460521980
