19
Coordinates from ORCA-job ./opt_b97-3c_parallel
  N   3.99138656043916      1.21079882027101      0.00026440369244
  C   3.15236275681328      0.40595097098962      0.00052692456195
  C   2.15282645431518     -0.57222405687031      0.00041242961179
  C   0.69449225338034     -0.33056744572675     -0.00030282361610
  C   0.06312631033443     -1.63544780448554     -0.00033335047072
  C   1.06229848159430     -2.58469353345181      0.00032565432999
  C   2.34480517668569     -1.92806033719561      0.00079903056080
  H   3.30137162809736     -2.42240842991427      0.00138122793710
  H   0.90255474345300     -3.65141616778755      0.00040887071065
  N   -1.28485865553139     -1.87419010078663     -0.00095786015610
  C   -2.00397077672838     -0.79524138144384     -0.00147274732659
  N   -3.39692601914732     -0.71029196047214     -0.00217689866576
  C   -3.61572511706160      0.57059289748687     -0.00254267818845
  N   -2.47351233458708      1.42833211437075     -0.00217863230884
  C   -1.48566227220266      0.57686943174392     -0.00151218604219
  C   -0.06043393672543      0.80817317288304     -0.00092038821553
  C   0.45815752196484      2.12317967933478     -0.00108282154602
  N   0.85859324425571      3.21140350537142     -0.00147853559327
  H   -4.60234829015126      1.00710131378253     -0.00309988757593
