23
Coordinates from ORCA-job ./opt_b97-3c_parallel
  N   2.16394505657631      3.58674612946938      0.00168947815407
  C   1.79486945161994      2.48314921221171      0.00141751315168
  C   1.45813392679170      1.12778587522384      0.00115539669627
  C   2.40206525569375      0.10777654751826      0.00132296416522
  C   1.70098116546239     -1.18501385390461      0.00094944642050
  C   2.36521602678065     -2.41365778410472      0.00085984986022
  N   3.00781485053111     -3.38273982490232      0.00096853006656
  C   0.34639301182007     -0.93612351077839      0.00055795770824
  N   -0.63985889673083     -1.88402337312867      0.00010875102322
  C   -1.83737159610071     -1.39994918033479     -0.00024079485549
  N   -3.01357879514520     -2.18898327066801     -0.00073181991807
  C   -3.98040786713090     -1.32872184256845     -0.00098647851345
  C   -3.52836255882523      0.08417606711834     -0.00067928289639
  C   -2.17645752486510      0.03064325648202     -0.00021134968850
  C   -1.12426738251186      1.01124529332632      0.00024118652068
  C   -1.44741591527597      2.38544731334398      0.00016946130222
  N   -1.78260890044563      3.49671430567558      0.00011545165286
  C   0.15409395985361      0.51692570190322      0.00066760739508
  H   -4.16020299504454      0.95876992118120     -0.00081443361199
  H   -5.01525079412229     -1.64308127912348     -0.00138403175758
  N   3.73129459197999      0.21045933933322      0.00187164964850
  H   4.17425144351093      1.11296578721715      0.00184344272869
  H   4.31702902837777     -0.60538966849077      0.00154032044747
