25
Coordinates from ORCA-job ./opt_b97-3c_parallel
  N   -2.65688590991977     -3.53046619779667      0.00431807952508
  C   -2.21592190327028     -2.45293112672265      0.00290276300840
  C   -1.75812341503086     -1.13362996360940      0.00152585916775
  C   -2.66014396883450      0.02940822288642      0.00307424790829
  C   -1.89600585736629      1.18321258983357      0.00113725200090
  C   -2.40391090072792      2.48055667967660      0.00203974692209
  N   -2.85301227083020      3.55599410039096      0.00306091396220
  C   -0.50037135779771      0.78864040206575     -0.00198645092973
  C   -0.45568902156251     -0.68099503252178     -0.00145423772326
  C   0.76541717675269     -1.40557581225738     -0.00464766897451
  C   1.91715354452735     -0.68615302303916     -0.00889592606782
  N   3.22215959315626     -1.14952946885038     -0.00901463363579
  C   3.96271515422165     -0.06613395948620     -0.00948629201116
  C   3.17624786303143      1.18732280594858     -0.00926214934240
  C   1.87990343670462      0.79253689643525     -0.00736058476675
  C   0.64286704790697      1.51282196104129     -0.00551767898476
  H   0.63117710422272      2.59471137820039     -0.00593117468436
  H   3.57038604068734      2.19219925952406     -0.01477350310532
  N   5.30477885450885     -0.08957176948880     -0.04118326814371
  H   5.77048346935286     -0.97552783496117      0.05189125578216
  H   5.83992612250677      0.74241781367420      0.11885944911465
  H   0.76899969318055     -2.48647651543080     -0.00544671154127
  N   -3.99180967381796     -0.09173099634255      0.00688797680229
  H   -4.43000912952271     -0.99461908924628      0.00456893935792
  H   -4.58036702887932      0.72185196407615      0.00543670005908
