24
Coordinates from ORCA-job ./opt_b97-3c_parallel
  N   -3.99434895845240     -2.21212095431783      0.00039030649166
  C   -3.16663009976000     -1.39088908909141     -0.00010135931252
  C   -2.20702822927053     -0.38346609104911     -0.00019558474930
  C   -0.76389202141302     -0.54656420863900     -0.00032218522594
  C   -0.20258610625078      0.78260691564981     -0.00042203620174
  C   -1.23446600303449      1.69888270375348     -0.00036457091673
  C   -2.48275684624661      0.98735889675342     -0.00023391832194
  N   -3.70016179267923      1.56970883403338      0.00005374550912
  H   -3.80229150079924      2.56502173036330     -0.00103914333957
  H   -4.53428422736425      1.01280459483209     -0.00060031556247
  H   -1.13289559876653      2.77393984191476     -0.00038089875324
  C   1.21593898988000      0.97531765321517     -0.00056146009049
  C   1.74725578608888      2.28937471366499     -0.00070484437953
  N   2.16084756896326      3.37339601938298     -0.00110570243551
  C   2.02349998414508     -0.13536411898899     -0.00058262933975
  C   3.46852711829993     -0.28735574261956     -0.00069906621137
  C   3.74328942083069     -1.62072611832454     -0.00067599342428
  C   2.49408701610644     -2.35480736505435     -0.00054262813185
  C   1.44348984740304     -1.46046338668438     -0.00048896696237
  C   0.03564523303685     -1.65017580687039     -0.00035549249558
  H   -0.38319501130765     -2.64853367392479     -0.00027212285368
  H   2.40764460609712     -3.43146117968453     -0.00049478133818
  H   4.72227610357764     -2.07180747537685     -0.00074267468590
  H   4.17639877631578      0.52583541816234     -0.00078869976885
