24
Coordinates from ORCA-job ./opt_b97-3c_parallel
  N   -4.24320412981986     -1.21722226790599     -0.00356236659208
  C   -3.25190283232905     -0.60642311884871      0.00526304493981
  C   -2.13408428124224      0.22726266935264      0.01388561960602
  C   -2.21602674024906      1.61715568065724      0.01604255187859
  C   -0.87045466270390      2.16591637875739      0.01517053256970
  C   0.01897324044696      1.13113384536129      0.01027988819607
  C   -0.73043545467265     -0.12308168982119      0.01100058000301
  C   -0.07046163827329     -1.32261960282250      0.00449857284145
  C   -0.72650391858691     -2.57414553999835      0.00491322901034
  N   -1.19972607041116     -3.63395352676078      0.00491297223220
  C   1.37260869013182     -1.29431765944620     -0.00027572522626
  C   2.32324603530127     -2.27130519712733     -0.00596516189084
  C   3.60952586280642     -1.56890016870031     -0.00861686554582
  N   3.48774512761225     -0.26980729256823     -0.00525915752605
  C   2.10608947062235     -0.04348476375867      0.00000765902618
  C   1.45728496338546      1.15699259152068      0.00559133661393
  C   2.12923269748759      2.40221582110961      0.00480446886587
  N   2.60398330683573      3.46025021749076      0.00402934232044
  H   4.58152761852566     -2.04165595050441     -0.01298152975240
  H   2.17038139885649     -3.33905060857733     -0.00795136031881
  H   -0.62761727298992      3.21775486742017      0.02113462901870
  N   -3.33017766342141      2.36403614807728      0.04696401779160
  H   -3.29058619646592      3.35686102286757     -0.08502566953332
  H   -4.23132736154670      1.92438453582534     -0.02905474872834
