23
Coordinates from ORCA-job ./opt_b97-3c_parallel
  N   3.73969344538192      2.48129800035790      0.00054256481812
  C   3.00810167293633      1.57403294705933     -0.00007719821540
  C   2.19439744302772      0.44362305249508     -0.00069700940831
  C   0.82973460552748      0.33858252470235      0.00058569513003
  C   0.55321061013982     -1.13806012044213     -0.00097906534614
  N   1.73257701307642     -1.85654946945482     -0.00257412403582
  C   2.68864694849635     -0.96228809804865     -0.00257178499877
  N   3.99018384535895     -1.25273672176791     -0.00337775378933
  H   4.28156694520579     -2.21391307622583     -0.00677188071499
  H   4.68616274592755     -0.52982224732659     -0.00627083464487
  N   -0.63280646823984     -1.65307117166976     -0.00105223062342
  C   -1.65597469973218     -0.73325422298621      0.00102947056100
  C   -2.98365607301958     -0.98898049689594      0.00345802292330
  C   -3.69321892127303      0.31215943214226      0.00953509028441
  C   -2.78643975628019      1.34108858254037      0.00490149046203
  C   -1.48636197495743      0.75201919310491      0.00023355955551
  C   -0.22480733444502      1.27309644783339      0.00163495483651
  H   -0.02877064109469      2.33766763435665      0.00151345646415
  H   -3.00453898505617      2.39638682584839      0.00603192666317
  N   -5.04263709727778      0.36576140342721     -0.02612235448678
  H   -5.50747303007273      1.24380145666438      0.12089773715174
  H   -5.57511217931099     -0.45429955358250      0.19924642717757
  H   -3.45431337021862     -1.95976046263191     -0.00484786716373
