21
Coordinates from ORCA-job ./opt_b97-3c_parallel
  N   4.00115179344500      2.20941813086180      0.01167122814966
  C   3.32445251215825      1.26244364373134      0.00948130577250
  C   2.51859268118563      0.12014538749798      0.00699230510762
  C   1.14439905373686      0.08958487499852     -0.00115123354708
  C   0.76208895922578     -1.33993059862121     -0.00029169006444
  C   1.99816906900190     -2.12953866609198      0.00901742085230
  C   3.03301011108735     -1.27312421185387      0.01310694292422
  H   4.08364389251258     -1.51265031168663      0.01990766201531
  H   2.02973085347615     -3.20595251496975      0.01146839772385
  N   -0.45334334785086     -1.78420271111411     -0.00685247675159
  C   -1.41018444844801     -0.78547498031162     -0.01496917742150
  C   -2.76273471170022     -0.91263976376851     -0.02109049822091
  C   -3.26970169958860      0.47160104248341     -0.02502966865044
  N   -2.31903517929868      1.37813548742215     -0.02343599094838
  C   -1.13482685392170      0.65684483520304     -0.01943585387957
  C   0.15128673409152      1.09881701593331     -0.01039773911887
  H   0.40617947082486      2.14979586830225     -0.01246646415339
  N   -4.58290393018553      0.77659472013294     -0.07695715769057
  H   -5.26749678769187      0.08572768347412      0.16744131317832
  H   -4.83861424161856      1.74002801897492      0.05708891942674
  H   -3.34021646244185     -1.82374836089807     -0.02791698080375
