25
Coordinates from ORCA-job ./opt_b97-3c_parallel
  N   -3.09296215511151     -3.38599525599931     -0.00362116076920
  C   -2.68902229133077     -2.29294844378992      0.01483180830723
  C   -2.24863948135912     -0.97275961181400      0.03125610189718
  C   -3.08129882729339      0.14825257774412      0.03608371352527
  C   -2.25355763376662      1.32260258198734      0.03315555431420
  C   -0.92726237837597      0.93386151872628      0.02191695513554
  C   -0.87082326280886     -0.50652619969115      0.02412974837354
  C   0.32076786927778     -1.16757574576615      0.01402354614581
  C   1.50703333146096     -0.39048502671456      0.00266593408088
  C   2.85131682148669     -0.75831236859804     -0.00871130031191
  C   3.34625300119318     -2.06735572530129     -0.01245248806280
  N   3.75948472311572     -3.15468854356247     -0.01566444302931
  C   3.67026559033993      0.44720574513209     -0.01673620528841
  C   2.84511955184099      1.52653209201531     -0.01084133951562
  C   1.47722576256755      1.04872373263323      0.00142162648018
  C   0.26972021619359      1.71197464796435      0.01060686520294
  C   0.19335656221421      3.12627458826846      0.00565090761639
  N   0.10983700330452      4.28345913100256      0.00023649481493
  H   3.13826378637578      2.56380440620915     -0.01404878093700
  H   4.74685682118833      0.44632613922881     -0.02596990772431
  H   0.37376155177404     -2.24858940070546      0.01609884776593
  H   -2.61919219309139      2.33864636187972      0.04420732366947
  N   -4.43630096158341      0.16095455687361      0.10296708550453
  H   -4.92228980860596     -0.70096323017446     -0.07833261698140
  H   -4.92112696100628      0.98783896605177     -0.19536874671408
