21
Coordinates from ORCA-job ./opt_b97-3c_parallel
  N   -3.43977778020546     -2.04717569382800      0.00063424561547
  C   -2.64720830549290     -1.19566223964369      0.00054149699793
  C   -1.82574771859372     -0.06678598545855      0.00044387141027
  C   -0.47110193942868      0.07207089661704      0.00018486580245
  C   -0.21937757289564      1.52607411033505      0.00022863457811
  N   -1.41124045836733      2.23368505628768      0.00051077186085
  C   -2.35882150749779      1.33982150877950      0.00064348166993
  N   -3.66883818723975      1.59165622660852      0.00092743668282
  H   -3.99056808047874      2.54346131034287      0.00104069409984
  H   -4.34555419669655      0.85018334303025      0.00099912882861
  C   1.04447120467633      2.02125353957263      0.00003923628086
  C   2.10602925353069      1.07128455478196     -0.00023447737330
  N   3.39891537537577      1.27884250817086     -0.00047177099612
  C   3.93323326538915     -0.03712462076021     -0.00066075344338
  N   3.08913219915846     -1.03098578941559     -0.00055438328991
  C   1.86137183955293     -0.38798808096146     -0.00027600672322
  C   0.60161584158847     -0.90340400765946     -0.00011110100862
  C   0.33075762652249     -2.28845450973237     -0.00021506142148
  N   0.07760992268938     -3.42086497126352     -0.00052680451577
  H   5.00384111175167     -0.17786429258315     -0.00087815357888
  H   1.24748407876120      3.08169013597965      0.00007613132356
