20
Coordinates from ORCA-job ./opt_b97-3c_parallel
  N   4.25709716021501     -0.00908985455415     -0.08511760839041
  C   2.89610419720475      0.08526108377857     -0.01777363372732
  C   2.10023147353924      1.19213157010912     -0.01790753336333
  C   0.72730938522229      0.74037814240582     -0.01516371683929
  C   0.74897428981273     -0.75032915346488     -0.01518783959867
  C   2.05087869598140     -1.12676576571164     -0.02247615191250
  H   2.43683760907326     -2.13682366393436     -0.03767359495629
  C   -0.47354338968054     -1.48161724536688     -0.00935134408812
  C   -1.60003644882317     -0.73258523037220     -0.00120395132599
  N   -2.94214019793262     -1.16016241000195      0.00788491055935
  C   -3.63772673329020     -0.05516656285820      0.01611856365841
  C   -2.81899901071986      1.15586776408592      0.01286444470402
  C   -1.52484907661805      0.72363746903387      0.00178874737365
  N   -0.35479717190168      1.45936958560064     -0.00691444161239
  H   -3.16845991195274      2.17618367923238      0.01800524837743
  H   -4.71956881833059     -0.07751222175199      0.02424542160165
  H   -0.49667488580250     -2.56414206593446     -0.01011345579842
  H   2.40682284109542      2.22455425911298     -0.01757816848625
  H   4.78392655584163      0.82224486208548      0.12037067116810
  H   4.67800093956619     -0.84894407539408      0.27275142305639
