21
Coordinates from ORCA-job ./opt_b97-3c_parallel
  N   -0.56058756441181     -3.60850671113392     -0.00137037568875
  C   -0.53768369536684     -2.44755204754423     -0.00088787759583
  C   -0.47573088137005     -1.03559388044859     -0.00064179403858
  C   0.81258434630777     -0.36756848663344     -0.00045744188700
  C   2.07659361892179     -0.84711489075406     -0.00040528186508
  C   2.94086702496244      0.35624913911216     -0.00019509369562
  N   2.26379583345069      1.47604357720445     -0.00010858436085
  C   0.92534499289969      1.09531209342276     -0.00023500596796
  C   -0.17942007142623      1.88229119302349     -0.00026033507193
  C   -1.45187188477188      1.23509507423862     -0.00045497665616
  N   -2.62901389655017      1.80507393882639     -0.00047518372029
  C   -3.57376001686706      0.74084092621596     -0.00069178178092
  C   -3.00220688907085     -0.48694652929722     -0.00080783148814
  C   -1.58212408043917     -0.24344878653525     -0.00066200936817
  H   -3.48758792640783     -1.44798507239775     -0.00097116354381
  H   -4.62447889199237      0.98369400094000     -0.00074316900865
  H   -0.12140954413087      2.96094968351744     -0.00010373308382
  N   4.28302142284251      0.28937572852786      0.00028993773436
  H   4.81764260649814      1.13938240965157     -0.00082348756835
  H   4.76902371201323     -0.58564568937477     -0.00185831286421
  H   2.39694701850890     -1.87821899106150     -0.00045774208023
