21
Coordinates from ORCA-job ./opt_b97-3c_parallel
  N   -4.02040365422716     -2.14552756647106      0.00402624969786
  C   -3.14403302044810     -1.38020938088413      0.00295947114945
  C   -2.16852885308854     -0.38303998834570      0.00180743252859
  C   -0.72392234489698     -0.53310566149419      0.00097279603109
  N   -0.03813287990649     -1.63079377443458      0.00107348453801
  C   1.32384463534747     -1.43631341235462      0.00006601413525
  N   2.22750751105464     -2.37520254863303      0.00016816269923
  C   3.44350668481515     -1.64315758324495     -0.00107612066074
  N   3.36972381883871     -0.33943690895426     -0.00188248756648
  C   2.00395562934467     -0.11904821964013     -0.00116285640464
  C   1.28182788200855      1.03229144698969     -0.00113038606673
  C   1.83065103926252      2.33446965201132     -0.00203512511559
  N   2.20487159070282      3.43245530988128     -0.00271722618471
  C   -0.14871406474177      0.84637831403624     -0.00013932202942
  C   -1.16641203816910      1.72787625096925      0.00003109861729
  C   -2.43756861772766      0.97187629072481      0.00125265769601
  N   -3.62796698186487      1.57266608809559      0.00161774749600
  H   -3.71523939669272      2.57164678615957      0.00139467641216
  H   -4.47411761828058      1.02787291941454      0.00253294687833
  H   -1.09389261099704      2.80560978799720     -0.00064522734046
  H   4.38310941716647     -2.17496320642268     -0.00134623211029
