24
Coordinates from ORCA-job ./opt_b97-3c_parallel
  N   -0.28159542788540     -4.00507483701093      0.00836175007951
  C   -0.32280741303024     -2.84568396482683      0.01262009418783
  C   -0.34830902269382     -1.42802917012702      0.01562847548538
  C   -1.53290461458507     -0.72510326178238      0.00169434988238
  C   -2.91838351273444     -1.15758600015386     -0.01648146865089
  C   -3.70317274342291     -0.04173502517613     -0.02815886507553
  C   -2.85015917758371      1.12424887211768     -0.01865802431461
  C   -1.53166504467770      0.71324220831448     -0.00012246560912
  C   -0.30375774221573      1.45095608510464      0.01418391801981
  C   -0.32415550919318      2.86517482025928      0.01120497892153
  N   -0.34841141697912      4.02594226765448      0.00674385979480
  C   0.88428788537568      0.75370404727421      0.03231520603405
  C   2.25276625157560      1.17447146377761      0.04143624485195
  C   3.04395079144325      0.04241211872044      0.04700649753434
  C   2.18583369034581     -1.12198068220070      0.04645075179162
  C   0.87456403208752     -0.69907859829757      0.03239055228182
  H   2.52502901191126     -2.14737822693299      0.06094072452142
  N   4.40983825305233     -0.03850284217131      0.12421317242068
  H   4.92228930383100      0.79170936641849     -0.11889995503490
  H   4.83234020433248     -0.87721852976887     -0.23466413772071
  H   2.59001634229454      2.19829334372484      0.04588712648612
  H   -3.18986539744410      2.14922350668772     -0.02480216162715
  H   -4.78041894569919     -0.01669591684502     -0.04238632925913
  H   -3.24417206820486     -2.18539474476024     -0.01900163060120
