26
Coordinates from ORCA-job ./opt_b97-3c_parallel
  N   3.56182058353289      3.29677528084430      0.00934846332690
  C   3.09534691749305      2.22897304533670      0.00890005409951
  C   2.58466502850459      0.93301060555065      0.00825090207985
  C   3.34658254188651     -0.22700817468719      0.00981225251341
  C   2.45462784591857     -1.39047462673913      0.00837918305002
  C   1.17330113138092     -0.94433344577227      0.00597711854206
  C   1.19577225441486      0.52829836868207      0.00579870314050
  C   0.04439770495048      1.24704540935613      0.00356491251992
  C   -1.17630657182492      0.52240370255013      0.00144165910338
  C   -2.48867171000760      0.92198514430924     -0.00103577793063
  C   -3.03745977197370      2.20329717672270     -0.00227838686159
  N   -3.56512430367712      3.24117968588993     -0.00342117683204
  C   -3.27715854314197     -0.33901092675228     -0.00228243634919
  N   -2.52137350261263     -1.41433887186564     -0.00071968018377
  C   -1.22966413992484     -0.95313687524454      0.00158149055034
  C   -0.06801023628931     -1.67836613925898      0.00383120682993
  C   -0.04177026174058     -3.08839907185887      0.00409754513237
  N   0.05604201662604     -4.24537086826077      0.00454303251678
  N   -4.60908668896742     -0.35520043824382     -0.00470660740587
  H   -5.09280842309690     -1.23588973452616     -0.00551301249982
  H   -5.14296145288752      0.49472196566075     -0.00590875293504
  H   0.04358854479388      2.32862702802664      0.00338878398315
  H   2.77995079047583     -2.41958768870195      0.00915267118394
  N   4.67988894477239     -0.32677570943619      0.01241455083903
  H   5.25519502039792      0.49763441300718      0.01282843078740
  H   5.13885428729660     -1.21768687058870      0.01251268669946
