22
Coordinates from ORCA-job ./opt_b97-3c_parallel
  N   -3.40565618355805     -2.45656265265371      0.00931606072925
  C   -2.71438837351094     -1.51774349645745     -0.01321345763666
  C   -1.91561862582314     -0.37809449473836     -0.03488841982288
  C   -0.46292708365898     -0.32355962159986     -0.02548416267501
  C   -0.10345045224112      1.08384318114869     -0.02608386853689
  C   -1.25931331079059      1.83074136141563     -0.04070753508391
  C   -2.38769671473630      0.93305300254798     -0.04273782576528
  N   -3.68377214701071      1.33485306329121     -0.11319517439735
  H   -4.39235024735339      0.64579058112410      0.07560528134587
  H   -3.90783394128916      2.26114217476370      0.20297505394841
  H   -1.31495397708437      2.90847077638083     -0.05558936026399
  N   1.18194776175435      1.56468337140227     -0.01596201366630
  C   2.10127818730046      0.64432715516317     -0.00419065426755
  C   3.55633214168193      0.83257579902532      0.00872369232578
  C   4.12401297477862     -0.39514693615603      0.01887490619752
  C   3.07158692300036     -1.41235175576730      0.01353184912076
  C   1.84900594834029     -0.79812210795318     -0.00070349913916
  C   0.50910371272672     -1.27306349597330     -0.01180715898375
  H   0.28513030350833     -2.33259897703533     -0.01141196917986
  H   3.25021595946742     -2.47799916288585      0.01988592744322
  H   5.17952199110222     -0.61532143710695      0.02951126737248
  H   4.04693603959601      1.79190898086442      0.00894476473529
