17
Coordinates from ORCA-job ./opt_b97-3c_parallel
  N   3.92164123223212      1.86007593444554     -0.00169067586368
  C   3.10013381887000      1.03669490060517     -0.00081779895223
  C   2.13759129137911      0.02481864028726      0.00026721352749
  C   0.77949921722307      0.14096334926937     -0.00028559507987
  C   0.27313753462419     -1.24978444484181      0.00148849339953
  N   1.35823817637402     -2.16997635125221      0.00303184881898
  C   2.42129302464352     -1.45093158870076      0.00234667854620
  H   3.41669305981634     -1.87207294363110      0.00319148388126
  N   -0.96293051981684     -1.60124984832370      0.00169190407368
  C   -1.83058183198120     -0.52044954186362      0.00000552487085
  N   -3.13174580736880     -0.60521132909795     -0.00025064062593
  C   -3.53335694923525      0.76326095666872     -0.00220593232499
  N   -2.59366105704139      1.66143255757102     -0.00315560340092
  C   -1.42781394910972      0.89081721103400     -0.00180137130621
  C   -0.12421761118989      1.24555194713385     -0.00200779770614
  H   0.21808368515629      2.27148005778912     -0.00336110769477
  H   -4.58499036217568      1.00571959600714     -0.00281928966354
