25
Coordinates from ORCA-job ./opt_b97-3c_parallel
  N   -4.20894090706542     -1.25685048201030     -0.00968405202204
  C   -3.22860815351498     -0.62820284294288      0.00941848952151
  C   -2.12492577590735      0.22308912783190      0.02716168241332
  C   -2.23342381597818      1.61778895473162      0.03250756828428
  C   -0.90934300877799      2.18051163178367      0.03057794658402
  C   0.00416860626369      1.15108222262513      0.02083976812123
  C   -0.71766283793875     -0.10573080235990      0.02109507782357
  C   -0.03259262248055     -1.29800636391343      0.00959438535908
  C   -0.67863057918095     -2.55692297439284      0.01019552275100
  N   -1.14707984443036     -3.61850059026224      0.01005477475426
  C   1.40025725169086     -1.25792372288631      0.00028131913692
  C   2.34140663993091     -2.26427035391076     -0.01137840559576
  C   3.66356633742341     -1.66996586895665     -0.01715987930879
  C   3.53650089431788     -0.31551667824860     -0.00970804766102
  C   2.11431972159663     -0.00603654609034      0.00163145953532
  C   1.43411299919021      1.18532749252632      0.01076351459603
  C   2.10476500315865      2.43377191198403      0.00876432223544
  N   2.63293945659041      3.46655122233197      0.00619669735498
  H   4.32715345853366      0.41715083992010     -0.01101016290018
  H   4.58609316809346     -2.22681304190204     -0.02612336547567
  H   2.13099154729098     -3.32318062951396     -0.01542552479145
  H   -0.68081239048170      3.23545888535937      0.04168146956723
  N   -3.37514531216794      2.33751068467828      0.08927983425144
  H   -3.35700710505560      3.30898101198240     -0.16059543187340
  H   -4.24912969580108      1.86302194653558     -0.06242813896133
