23
Coordinates from ORCA-job ./opt_b97-3c_parallel
  N   4.04805700567911      2.62642003405664      0.00553696711192
  C   3.25689241780364      1.77265214071638      0.00483998074081
  C   2.38336890488458      0.68612479537263      0.00453850805545
  C   0.96492522448856      0.65273425096910      0.00263478996484
  C   0.63411922969538     -0.82734365418009      0.00340329123910
  N   1.70828112815394     -1.57144413551312      0.00545330035878
  C   2.77654923629637     -0.66288671862230      0.00614767665184
  N   4.00368068932699     -1.15154504830213      0.00818718660532
  H   4.13357302627079     -2.14868128171211      0.00918662391358
  H   4.80679928602201     -0.54611243419835      0.00879301587121
  C   -0.72370611854844     -1.25566666529893      0.00191805477556
  C   -1.07055542844873     -2.62417352285621      0.00255201398465
  N   -1.34338012810158     -3.75157562515639      0.00285543427309
  C   -1.65466645554706     -0.23766380944961     -0.00014121156506
  N   -3.00547154979020     -0.33188441403177     -0.00186675776830
  C   -3.42219881745277      0.93573030109443     -0.00348923539564
  C   -2.34261729556527      1.92979910116273     -0.00287728800005
  C   -1.20051242201077      1.19881676255484     -0.00073601011541
  N   0.09507694301820      1.62331151613960      0.00065414195018
  H   -2.44172629734706      3.00233225324576     -0.00390618607998
  N   -4.71330532258901      1.23834698342777     -0.00546722556053
  H   -5.39006178372661      0.49306084037953     -0.00577032469201
  H   -5.03629458981202      2.18802471830164     -0.00674241131934
