25
Coordinates from ORCA-job ./opt_b97-3c_parallel
  N   5.27376640495428      0.03064933310860      0.04331674414344
  C   4.11878389977209      0.18291576006150      0.04959277030450
  C   2.72412367650225      0.27680673765991      0.04908502283521
  C   1.92596397086857      1.43741536408224      0.04520421010937
  C   0.57732948094289      1.05792857375477      0.01784181797533
  C   0.52294904487221     -0.39181813180404      0.00906527379140
  C   1.86504254521865     -0.86150132810594      0.02037069585485
  N   2.29200432568448     -2.14619113117578      0.06061161088352
  H   3.26795228718486     -2.31766186018478     -0.11582940147568
  H   1.67275179082637     -2.86997394986425     -0.25592345651532
  C   -0.69437946472602     -1.05694820171619     -0.00478585497656
  C   -1.85811647313226     -0.30597978679900     -0.01839798108489
  C   -3.23620675068968     -0.66999486225156     -0.02620775961158
  C   -4.00857977477933      0.51882007127227     -0.05060474906908
  C   -3.15021357854840      1.60674114623382     -0.04646139111915
  C   -1.80844986513634      1.14346608256498     -0.02356822527987
  C   -0.59862345880988      1.80986237351389     -0.00202190304181
  H   -0.55978525515483      2.89274531750126      0.00047111944930
  H   -3.45214733925413      2.64314725890863     -0.05209630636459
  H   -5.08695452935180      0.55622899735078     -0.06788913932007
  N   -3.73526477661396     -1.93513835972667     -0.06808913231635
  H   -3.14157816774886     -2.68612462999898      0.23665071233860
  H   -4.70309745857770     -2.05984905591749      0.17166410948327
  H   -0.73227083613683     -2.14294960339773     -0.00525244843923
  H   2.30794141493322      2.44572108612973      0.05238005734522
