22
Coordinates from ORCA-job ./opt_b97-3c_parallel
  N   -4.27536316929861     -1.42958239069424     -0.02047783524832
  C   -3.41630927692078     -0.64552370627682     -0.01461780902217
  C   -2.44343553676350      0.35747514421689     -0.00834956684976
  C   -1.07942770307458      0.26286206184875      0.00115720982752
  C   -0.59798136145313      1.65399989772864      0.00395508797976
  N   -1.68291063248490      2.55718332445830     -0.00388251778604
  C   -2.74041845076698      1.81930550061525     -0.01072239237122
  H   -3.74010140098589      2.23007458727401     -0.01772874943435
  N   0.64160348218534      2.01759239990583      0.01267915858034
  C   1.53619608493991      0.97979291445044      0.01949974779162
  C   2.89236206479410      1.07168098720833      0.02461537721129
  C   3.43911468584148     -0.29849587611228      0.02394720294637
  C   2.40541459284653     -1.20259317562459      0.02419402770647
  C   1.18944137634672     -0.45605015143869      0.02024845956307
  C   -0.13698294607672     -0.81713030351135      0.00789614329437
  C   -0.53560285611796     -2.17170428397300      0.00424185640388
  N   -0.82492281897739     -3.29597317152207      0.00054085989878
  H   2.48128830549886     -2.27702489630311      0.02651812715582
  N   4.77171082035897     -0.52324676973806      0.07312438531938
  H   5.40811856698335      0.21711308061058     -0.15864836796467
  H   5.11940112943898     -1.45519068372979     -0.06615888518197
  H   3.47081177418617      1.98272256240696      0.03336725257985
