24
Coordinates from ORCA-job ./opt_b97-3c_parallel
  N   -5.12504756510747     -1.68025354072410      0.01992394028059
  C   -4.23384502143874     -0.93209495821494      0.01564053733937
  C   -3.17371331914788     -0.02337454448273      0.01085448691713
  C   -1.81807889552088     -0.29968041201301     -0.00160231283961
  C   -1.17973953058330      0.99015589684661     -0.00031829827364
  N   -2.11615928845968      2.02704411792811      0.01243152371419
  C   -3.27972875244816      1.44691927372295      0.01888267865550
  H   -4.20646718620531      2.00070067326011      0.02919644920627
  C   0.19070102496615      1.09806876559853     -0.01098596577059
  C   0.83313742645904      2.35823702321466     -0.00854478810550
  N   1.37758932127643      3.38210956394687     -0.00576909904082
  C   0.93822731194874     -0.12209018089236     -0.02458283394845
  C   2.30442265343798     -0.35724323633895     -0.03640980160792
  C   3.36396521970214      0.55455431393457     -0.01793850087668
  N   4.32202943520022      1.21395984586822      0.00798654361931
  C   2.53517473388784     -1.81253386562831     -0.04016472350485
  C   1.31681094661586     -2.43289761972073     -0.03329701243061
  C   0.28716107445218     -1.41953944453776     -0.02604771318286
  C   -1.07232867842398     -1.51210671410250     -0.01328456989310
  H   -1.58113407894553     -2.46679717070189     -0.01209604478090
  H   1.13864721464384     -3.49557982791545     -0.04070938745006
  N   3.79041552849155     -2.33434679263959     -0.11754328210472
  H   4.55801147213773     -1.74961559443760      0.16698873671358
  H   3.90449930726152     -3.30403134097061      0.11779391666443
