20
Coordinates from ORCA-job ./opt_b97-3c_parallel
  N   -0.06109207516469     -3.54855594940812      0.00059636578205
  C   -0.06267262440031     -2.38834779339957      0.00023120872414
  C   -0.04704201648479     -0.97087582117731      0.00014277887453
  C   1.19489024577232     -0.25949085510224      0.00038245944799
  C   2.51815481197823     -0.65426227948409      0.00069181367569
  C   3.28270865930298      0.56495779092499      0.00081100952945
  N   2.52768790157288      1.64640497883107      0.00060073753805
  C   1.21506803436419      1.17998120348951      0.00033157910592
  C   0.06224917373920      1.91450523384810      0.00005119596329
  C   -1.16528974140747      1.21106273604837     -0.00018923766415
  C   -2.47952357966323      1.64881750838614     -0.00049709064760
  C   -3.35930808843409      0.50760743059457     -0.00064856210991
  C   -2.60321286576505     -0.62926140731438     -0.00044050545273
  C   -1.20784035053100     -0.23521487047709     -0.00014781355217
  H   -2.95837777769848     -1.64737504108570     -0.00047724963205
  H   -4.43591787079928      0.55801625850031     -0.00088683275187
  H   -2.79990072347803      2.68033971784559     -0.00060784906699
  H   0.09226912761404      2.99625286225089      0.00001658258086
  H   4.36070202941366      0.63643599798351      0.00104567856494
  H   2.90310447436893     -1.66233020825456      0.00082126999056
