18
Coordinates from ORCA-job ./opt_b97-3c_parallel
  N   4.14154599613664      0.12514757428436      0.00017304664206
  C   2.80734001744281      0.08444719874524      0.00005238249003
  N   2.05134911573673      1.15127850692859     -0.00116572743064
  C   0.75321971089213      0.67257346816141     -0.00079361486297
  C   0.75231364787781     -0.83702331997493      0.00083899767976
  C   2.04718247558873     -1.19861709541472      0.00135442108684
  H   2.47117046274733     -2.19190606287577      0.00248482829692
  C   -0.48325436363216     -1.56202524002080      0.00147460549758
  C   -1.58329658845215     -0.78568377501292      0.00048518910302
  N   -2.93931212914539     -1.11544756646752      0.00064984828126
  C   -3.51228165352387      0.05392326275590     -0.00071915884824
  N   -2.68099826413845      1.20375266138892     -0.00185932808549
  C   -1.47948265490069      0.69420830922262     -0.00111918369384
  N   -0.30698032300666      1.41367968941183     -0.00174136462020
  H   -4.58543408995227      0.17862625617106     -0.00101632058200
  H   -0.51908682535027     -2.64360652158743      0.00263458762268
  H   4.69816695892936     -0.70808692572644      0.00092580337950
  H   4.60521398615037      1.01745107621058     -0.00087430325625
