20
Coordinates from ORCA-job ./opt_b97-3c_parallel
  N   4.48693062825438      0.03828549558804     -0.02889559745238
  C   3.15282801724526      0.03312564698788     -0.02803594256993
  N   2.44731749066726      1.15077295413586     -0.02713211885501
  C   1.14346081694271      0.72810547300540     -0.02642914143431
  C   1.07016158062837     -0.78291469046608     -0.02696438928160
  C   2.35356257233355     -1.20434930346347     -0.02798467566194
  H   2.72398745328286     -2.21699641064687     -0.02862656786888
  N   -0.09615284965288     -1.49900237473925     -0.02648065676894
  C   -1.14377918266296     -0.72800961985821     -0.02549515487015
  N   -2.44763573343654     -1.15067692123416     -0.02479559506881
  C   -3.15314618398841     -0.03302928522172     -0.02389326794994
  C   -2.35388107774289      1.20444509306350     -0.02393908178525
  C   -1.07047997230279      0.78301050558269     -0.02496000944911
  N   0.09583436746219      1.49909793421330     -0.02544289924975
  H   -2.72430410716566      2.21709272992395     -0.02329637556664
  N   -4.48724877071841     -0.03818975577120     -0.02303513586478
  H   -4.97284654304698     -0.91844177579231     -0.02299672705739
  H   -5.01891430376132      0.81115019024501     -0.02225335615835
  H   4.97252852100903      0.91853741979212     -0.02897672522337
  H   5.01859577115323     -0.81105457664449     -0.02972173626348
