19
Coordinates from ORCA-job ./opt_b97-3c_parallel
  N   0.60034861866939      3.64467283754898     -0.00735543865178
  C   0.60114757942533      2.48432241769736     -0.00513440715054
  C   0.50542080856554      1.07539727374612     -0.00245680874290
  C   1.55901260107826      0.21867992800794     -0.00098674287638
  N   2.92009574575894      0.45125065449038     -0.00159245229904
  C   3.40998491858249     -0.76161451186526      0.00077397332561
  N   2.50429579427393     -1.84702730446036      0.00302860868914
  C   1.33952343543375     -1.25764901924621      0.00195337079099
  N   0.12439298360146     -1.88740185959187      0.00333312649632
  C   -0.88619457910130     -1.07538343578862      0.00188378422862
  N   -2.20904584872655     -1.46303510103350      0.00278386205455
  C   -2.89303233742416     -0.34624262578118      0.00070538642005
  C   -2.04564911233544      0.88509244060536     -0.00177703552305
  C   -0.78570484961401      0.42749589635415     -0.00102286360171
  H   -2.39076857366226      1.90793349731437     -0.00374618296634
  N   -4.22314820275181     -0.29533328228260      0.00077141567943
  H   -4.72120808129623      0.57492408944535     -0.00086402813183
  H   -4.74830947032074     -1.15359166464092      0.00250013177340
  H   4.47226058194342     -0.95725360621945      0.00106029558545
