21
Coordinates from ORCA-job ./opt_b97-3c_parallel
  N   -4.49197280783049     -0.24850984713322      0.00056530025676
  C   -3.39905611343444     -0.64463862274187      0.00037306492485
  C   -2.09373994928807     -1.14770137172859      0.00029599095161
  C   -1.74473449930082     -2.47622008606116      0.00020835439701
  C   -0.31542405537006     -2.57386638950194      0.00020799560240
  C   0.23166395789145     -1.30405773875963      0.00030577456477
  C   -0.84981348890723     -0.35692033831461      0.00032881158334
  C   -0.62290819122250      0.99674575405319      0.00022171197559
  C   -1.65008320959339      1.96776890980722      0.00006285236810
  N   -2.47708047847598      2.78077855964306     -0.00015100582795
  C   0.75584210068573      1.41409803810061      0.00019334651548
  N   1.24453097447400      2.63924026215467      0.00007441114857
  C   2.62923063397275      2.42010021506419      0.00009209244954
  N   3.02866098012249      1.16848449310319      0.00021849276798
  C   1.84143123463774      0.46273355970296      0.00028868304230
  C   1.60383028373216     -0.88965261186041      0.00030833959175
  C   2.63503256463638     -1.85646283491660      0.00038632147478
  N   3.43783580963431     -2.69362513953161      0.00052914454892
  H   3.31148804119274      3.25530515826676     -0.00000393409220
  H   0.24400328810080     -3.49700689718731      0.00012695736654
  H   -2.43213913265757     -3.30455921395891      0.00015749418988
