24
Coordinates from ORCA-job ./opt_b97-3c_parallel
  N   -4.98899934254826     -1.83870573643788     -0.00265986501815
  C   -4.18906643387648     -0.99538146314387     -0.00254972957733
  C   -3.21692059692475      0.00961857953141     -0.00253398137794
  C   -1.75357314561676     -0.22055578277068      0.00427021466147
  N   -1.13217771217984     -1.35942889319882      0.01113319279872
  C   0.23104434766337     -1.26262301999446      0.01607552164933
  C   1.11984995383249     -2.30880937759306      0.02299013018396
  C   2.46045721498743     -1.76802322411086      0.02280426848389
  C   2.38655499068328     -0.37237095933711      0.01886522561265
  C   3.50740729311586      0.45626147600398      0.00592316616598
  N   4.49624971641306      1.07156868777407     -0.00760306462463
  C   0.98850445912712     -0.01290577452040      0.01514524933350
  C   0.30864555647634      1.17743430232850      0.00642224235067
  C   0.92956982615320      2.44720628293249      0.00442335296991
  N   1.37596206168511      3.51831692890944      0.00228944665464
  C   -1.12506922692142      1.08879687639894      0.00137428361314
  C   -2.11994073093135      2.02823869644875     -0.00647868706021
  C   -3.40843115218008      1.36166899298198     -0.00865289191675
  H   -4.36232614981784      1.86163086244380     -0.01442899368774
  H   -1.98334745149443      3.09889122336568     -0.01042911457837
  N   3.57833308318775     -2.51362122599887      0.06193164681780
  H   3.53891596929575     -3.50112757808139     -0.10634540876566
  H   4.47492615271114     -2.07000464699352     -0.04070037702833
  H   0.86049477475935     -3.35590765223811      0.03155676413944
