24
Coordinates from ORCA-job ./opt_b97-3c_parallel
  N   -4.18394767834733     -1.93968574144252      0.00049591614443
  C   -3.27984652001276     -1.20639757303203      0.00028169233625
  C   -2.31592255395943     -0.19947649828397      0.00021232238895
  C   -0.94751676394648     -0.23256737163940      0.00010987028843
  C   -0.53124775024308      1.20189406250161      0.00017195280555
  N   -1.60569765237923      2.03848583379017      0.00027672247266
  C   -2.66273612800166      1.24953568052402      0.00030499705662
  N   -3.91300815666583      1.68327312548225      0.00041075704358
  H   -4.09511880177640      2.67271207895579      0.00048544725970
  H   -4.68779676922685      1.04228621587684      0.00045552632103
  C   0.79639750730478      1.56308502288304      0.00016786742854
  C   1.21967570647180      2.90816529705460      0.00030586571965
  N   1.58575328382075      4.00906514027681      0.00058376826205
  C   1.74182034790294      0.48873434447898      0.00004776976540
  N   3.04425712488894      0.55536878092989      0.00000863751127
  C   3.41125375798062     -0.81006602231839     -0.00009994749713
  N   2.43110873066821     -1.71402804175621     -0.00013179470472
  C   1.32154685022468     -0.94812892037229     -0.00003536891104
  C   -0.00971358905125     -1.30625968699203     -0.00002299887759
  C   -0.42602392305086     -2.65346698977617     -0.00011791402940
  N   -0.78054623106027     -3.75871465559690     -0.00021824869354
  N   4.69754356602168     -1.11265275514415     -0.00016143633389
  H   4.98984323956149     -2.07420392032891     -0.00023486897264
  H   5.38162612707552     -0.37711445487102     -0.00012897538419
