26
Coordinates from ORCA-job ./opt_b97-3c_parallel
  N   -3.78054925889795     -3.20232839921364      0.00256564675019
  C   -3.12910668028065     -2.23799002914294      0.00223701098703
  C   -2.42660452920613     -1.03212438861661      0.00183954346852
  C   -3.02521572757596      0.21826921914501      0.00076640880380
  C   -1.97926203391617      1.26505985068141      0.00064123213978
  C   -2.26978792435598      2.62989021549078     -0.00035327125952
  N   -2.57272953611202      3.75413975665576     -0.00115904635941
  C   -0.75576800986529      0.64605318112002      0.00163457054326
  C   -0.99953274267870     -0.82835091658297      0.00242020495708
  N   -0.06245270079580     -1.72474440425974      0.00343351259345
  C   1.21407888653805     -1.22070276803914      0.00375706692764
  C   2.37128900497953     -1.93123928985376      0.00477007784490
  C   3.48613531282390     -0.97973382966342      0.00475401844417
  C   2.99155603148661      0.32129897734572      0.00371896528051
  C   3.77447664810584      1.47385090867466      0.00343124302451
  N   4.46532055920390      2.41228324138058      0.00340283507990
  C   1.55552287562317      0.22188919907283      0.00304722454533
  C   0.56251419394251      1.15127458557661      0.00198256192991
  H   0.75616520040074      2.21577005120328      0.00143049395947
  N   4.76720479882415     -1.35362599878650      0.00559474765705
  H   5.50104070372792     -0.66576769434308      0.00565648463044
  H   5.03189221993679     -2.32053576718571      0.00648876343495
  H   2.46420840403756     -3.00564574617765      0.00547269958670
  N   -4.32197689566976      0.51055570692892     -0.00005267034898
  H   -4.64056878623110      1.46358853503767     -0.00080725570116
  H   -5.01154350494514     -0.22159304824810      0.00005057048050
