23
Coordinates from ORCA-job ./opt_b97-3c_parallel
  N   -4.43397412428001     -2.17331923484234     -0.02123482230298
  C   -3.65040498739480     -1.31331613273195     -0.01687687684052
  C   -2.71855299390428     -0.27197255065131     -0.01172050121290
  C   -1.33952957121914     -0.36866592225010      0.00089568836105
  C   -0.87630980292312      0.99835715664698     -0.00032589203417
  N   -1.93957132291902      1.90067045873439     -0.01323438230932
  C   -3.01649282326831      1.16836940549270     -0.01979715995191
  H   -4.00825485695900      1.59538465537077     -0.03021633971181
  C   0.46773477982545      1.27832869614929      0.01105952711261
  C   0.97628137830045      2.59883591552301      0.00608867328005
  N   1.46322259825220      3.65152089624964      0.00028812924768
  C   1.36954635026944      0.16733287163500      0.02277239527766
  C   2.73925012936531      0.13081296088776      0.03643011046186
  C   3.17311134365091     -1.26194728697197      0.03474394088560
  C   2.06225056904999     -2.06345264296243      0.03101172896662
  C   0.89170394173045     -1.20799446589890      0.02486944436903
  C   -0.44069633173034     -1.47701567420287      0.01358237533233
  H   -0.82545805172548     -2.48836340194974      0.01626573131560
  H   2.04321130133299     -3.14116337624425      0.03414965149402
  N   4.49709075913882     -1.60863189646166      0.11429427308241
  H   4.72472832129779     -2.56227790761960     -0.10915834666897
  H   5.15797155582492     -0.95215294278467     -0.26440146653244
  H   3.39973134878481      0.98612743718224      0.05137758377849
