22
Coordinates from ORCA-job ./opt_b97-3c_parallel
  N   -4.31436719946601     -1.85856277210208     -0.00029819491982
  C   -3.42767234042111     -1.10405742910397      0.00710136937281
  C   -2.41315013221791     -0.14565906823797      0.01250036150636
  C   -1.06183179143033     -0.33569507182280      0.00989900396200
  C   -0.43204152239827      1.01807745606858      0.00876757058826
  C   -1.47759350683622      1.99336676887059      0.01021378208465
  C   -2.67130830213956      1.33139286914063      0.01209039482402
  N   -3.93248232001829      1.79294176637621      0.03471891542886
  H   -4.12187276590455      2.77578726013807     -0.03039305174140
  H   -4.71282170081795      1.16670941961660     -0.04991737798754
  H   -1.32245307186647      3.05840589224557      0.01159153891681
  N   0.85944037957159      1.21472935974894      0.00435333848351
  C   1.60279556019488      0.06921249196985      0.00135017943532
  C   2.97160025776159     -0.08119026820996     -0.00229319256866
  C   3.96226075494191      0.90096698987968     -0.00410197601779
  N   4.82207385239022      1.68468884708014     -0.00578903282589
  C   3.20706540172565     -1.54704450656948     -0.00425330093589
  N   2.11517428582511     -2.24203571505374     -0.00200935636787
  C   1.07292821815678     -1.29258718183213      0.00181466551744
  C   -0.26196195723948     -1.51039071465701      0.00588737016166
  H   -0.69372161211036     -2.50224078126408      0.00648687402332
  H   4.18589830019898     -2.00542679858169     -0.00740352154033
