19
Coordinates from ORCA-job ./opt_b97-3c_parallel
  N   -3.99494231104942     -2.20287168274900     -0.00044262521059
  C   -3.26727531042049     -1.29537020761835     -0.00033762549151
  C   -2.44791608664477     -0.16613645885555      0.00009812721097
  C   -1.07690939966705     -0.08908156043884     -0.00120537164971
  C   -0.78217232143678      1.35731781300822      0.00019680152621
  N   -1.97518229886515      2.11508681190569      0.00219587681385
  C   -2.92732903993670      1.24223355817717      0.00215505665265
  H   -3.97096787095798      1.52535763441363      0.00349484092823
  C   0.48554326549909      1.81546714070618     -0.00030736827806
  C   1.47676202934647      0.78152780513078     -0.00239739625811
  N   2.77023191049414      0.87467368709571     -0.00341395511307
  C   3.16269836432335     -0.51023484332349     -0.00539879552043
  N   2.21136078788195     -1.41841753412366     -0.00565953786650
  C   1.06923603545045     -0.67199933962564     -0.00377780582202
  N   -0.15888568524652     -1.09889907988958     -0.00321962904997
  N   4.46404700668810     -0.76158539502571     -0.00684713863572
  H   4.79520615409399     -1.70999424680103     -0.00812024838996
  H   5.11765627149779      0.00021775144142     -0.00633197590332
  H   0.74305332694963      2.86521689517186      0.00073593485710
