21
Coordinates from ORCA-job ./opt_b97-3c_parallel
  N   2.32694632788207      3.60833386672910     -0.00381269352055
  C   1.87080743658730      2.53867119356563     -0.00376863124039
  C   1.42240617153819      1.21575403969870     -0.00338365496600
  C   2.25840042619976      0.11873310469994     -0.00463997767647
  C   1.43387143632605     -1.12392439102912     -0.00375269858679
  C   1.98945252827120     -2.40615561375089     -0.00463912426189
  N   2.50637276665142     -3.44838850474900     -0.00526703554860
  C   0.11920957782701     -0.76672070517835     -0.00200257192446
  C   0.05816053386282      0.73145308660852     -0.00171862314789
  N   -1.03251964398952      1.42731640548974     -0.00023295745964
  C   -2.17763687906387      0.66128323806980      0.00113184674922
  N   -3.39650414722447      1.11747325076689      0.00279665333222
  C   -4.17881586393250     -0.07699567941585      0.00364098979918
  N   -3.54901194647070     -1.21441927354300      0.00264936541716
  C   -2.21128063165382     -0.82046975302358      0.00096523156298
  C   -1.07325648036330     -1.54569292410023     -0.00057891003089
  H   -1.05105878706297     -2.62722033170679     -0.00072425362203
  H   -5.25592595119250     -0.00061326810126      0.00506156681913
  N   3.58699417668413      0.07927633179067     -0.00640354758236
  H   4.12249862750221      0.93126130968385     -0.00685674793931
  H   4.08605157892145     -0.79296611240469     -0.00699309537267
