19
Coordinates from ORCA-job ./opt_b97-3c_parallel
  N   3.29566106343726      2.44318050507803      0.00255851752734
  C   2.54731109527027      1.55237499470774      0.00144664151265
  C   1.75738811210846      0.40382640467762      0.00006776525706
  C   0.40266118441267      0.25304298524765      0.00049666511169
  C   0.16380928880264     -1.21277259789047     -0.00162913758765
  N   1.35867993434001     -1.90832532713128     -0.00328187396753
  C   2.29633506129711     -0.99815390815603     -0.00234863183255
  N   3.60506133819541     -1.24400838037893     -0.00342100383843
  H   4.27844438500801     -0.49915468630513     -0.00237779911923
  H   3.93011620360189     -2.19519991435983     -0.00488412512095
  C   -1.10713909169860     -1.69437357190774     -0.00173516903831
  C   -2.11896515507381     -0.70046929383219      0.00029221718473
  N   -3.41775937808822     -0.80782383986275      0.00077935005198
  C   -3.84552773831538      0.55745001291277      0.00309094704745
  N   -2.94060707132247      1.48843168430487      0.00406317751531
  C   -1.75185816070895      0.76197733379219      0.00235218803180
  N   -0.55476721268831      1.24360349453561      0.00249018563965
  H   -4.90455361351363      0.77169168820298      0.00395630421806
  H   -1.33898751836439     -2.74955504953520     -0.00323694829300
