23
Coordinates from ORCA-job ./opt_b97-3c_parallel
  N   -5.02740408046517     -1.24637294627781      0.00008104187863
  C   -4.10471589609394     -0.53788442224221      0.00010378341275
  C   -2.97325851838227      0.28441090100276      0.00015026864719
  C   -1.61104909472324     -0.18581202361861      0.00005662169231
  C   -0.78114956226615      0.97719379968088      0.00017898509350
  C   -1.61893248205126      2.11126227259434      0.00032815724179
  C   -2.95391536110631      1.68600423086888      0.00030999351285
  H   -3.82461573861995      2.31914789162591      0.00040850278825
  H   -1.28468849701294      3.13700896723409      0.00044104928219
  C   0.62596284555140      0.85470998892564      0.00013910876506
  C   1.42083049732788      2.02839371192072      0.00025962993128
  N   2.01730127599332      3.02296585383219      0.00025804629955
  C   1.16861779123227     -0.42669450212626     -0.00002010813124
  C   2.52749278529268     -0.91207002462654     -0.00009728702262
  C   3.69737612549666     -0.14395952488946     -0.00003512706306
  N   4.68516391211306      0.46970001488085     -0.00024904720671
  C   2.48755488057940     -2.31141871718187     -0.00025702589079
  C   1.14657315756148     -2.72025564611799     -0.00029824384422
  C   0.31774002806394     -1.58064917965703     -0.00015127422478
  C   -1.07651289284128     -1.45681140805580     -0.00010929104758
  H   -1.71307141935479     -2.33282952844787     -0.00020008191502
  H   0.80431014414447     -3.74365469033954     -0.00041799340972
  H   3.35257500696076     -2.95232174368520     -0.00033872498968
