27
Coordinates from ORCA-job ./opt_b97-3c_parallel
  N   4.18718811774467      2.47316610702931     -0.00224146199723
  C   3.38119309220199      1.63373040993318     -0.00187096233267
  C   2.50097166308291      0.54902928552545     -0.00152490130439
  C   2.92774076991030     -0.77802085441083     -0.00167970092342
  C   1.75442842514648     -1.66930008997868     -0.00126709030347
  C   1.85983752778138     -3.06057073351308     -0.00133485996114
  N   2.05884440952018     -4.20678470035046     -0.00135402525756
  C   0.62979605151775     -0.87913794686524     -0.00093542218491
  N   -0.65730856802496     -1.31517588495752     -0.00060464395178
  C   -1.55690368462815     -0.37362951282099     -0.00017386105195
  C   -2.98578027625041     -0.50887124680405      0.00020531799259
  C   -3.76011615970018     -1.66945525729324     -0.00006919233249
  N   -4.48240854322859     -2.58182623053911     -0.00032131856576
  C   -3.50852540349257      0.78130551330939      0.00074499715480
  C   -2.41477117225405      1.76773842041207      0.00069906612790
  C   -1.24787263101087      1.08894515518650      0.00008853659765
  C   0.11942265048570      1.52327183387867     -0.00035905088779
  C   0.39923056672143      2.90692024633298     -0.00006035454573
  N   0.54152312957034      4.05903065312801      0.00019916986156
  C   1.07131029776052      0.53679965450113     -0.00098378755386
  H   -2.54961412562601      2.83840662705012      0.00103607670669
  N   -4.79262101625431      1.12321816985122      0.00118683299155
  H   -5.50944550535663      0.41596764868909      0.00112635996714
  H   -5.08206025975175      2.08395987373215      0.00155952804305
  N   4.17412261090297     -1.23336156411809     -0.00213517910836
  H   4.36644151973004     -2.22028839989517     -0.00218716902920
  H   4.95259665940186     -0.59569080411283     -0.00243854295121
