23
Coordinates from ORCA-job ./opt_b97-3c_parallel
  N   4.17359482280906      1.61676394307322     -0.01687814779965
  C   3.43948019250286      0.71494694959126     -0.01312205429825
  C   2.57004074587194     -0.38146678584966     -0.00912431590940
  C   1.10046894627630     -0.33698439532540      0.00134503340946
  C   0.63266460840463     -1.71704771618144      0.00148073881508
  C   1.74580522260883     -2.52269509799319     -0.00811767255785
  C   2.93155498183718     -1.70279252233189     -0.01450304111289
  H   3.94502518303041     -2.06865507715820     -0.02246270906777
  H   1.74593002841274     -3.60178168996284     -0.01052916094302
  C   -0.75528856758471     -2.03929556592761      0.01128106582375
  C   -1.64754231355188     -1.01517539551990      0.02319544952016
  N   -3.03598508730092     -1.06492725417309      0.02732380917184
  C   -3.42946089536314      0.18847408305260      0.03560420844267
  C   -2.31197885459470      1.14073844889908      0.03467095359197
  C   -1.19118213355565      0.36700386495929      0.02215474242204
  C   0.21344400259717      0.69945589242517      0.01386880351012
  C   0.58312237602106      2.06676471411603      0.01219738289412
  N   0.79654246212160      3.20698858452928      0.01011811412818
  H   -2.37366737689348      2.21832618938568      0.04733412116584
  N   -4.72933993049195      0.56374802847128      0.09996302682441
  H   -4.98351751841600      1.48918861708681     -0.19323027153630
  H   -5.41316613521718     -0.15482698044014     -0.06656836161008
  H   -1.08228565892413     -3.06983236142640      0.01231521701556
