24
Coordinates from ORCA-job ./opt_b97-3c_parallel
  N   -0.08134780257998     -4.13801287389710      0.00128320503382
  C   -0.02709943603970     -2.97631587604293      0.00174672320259
  C   0.01807602155287     -1.56992523941181      0.00230462411213
  C   1.20672207232462     -0.86988562660304      0.00386828856188
  C   2.56073969520914     -1.23099851476695      0.00515232150266
  C   3.25282929876743     -0.03041168397833      0.00632865741622
  N   2.41003461274478      1.11409550587209      0.00585398589577
  C   1.20234063577212      0.62994516296399      0.00441279905173
  C   -0.01879006462795      1.39072253376999      0.00348712874144
  C   0.01681832443589      2.80125106851954      0.00422427327369
  N   0.06073778744772      3.96071990196724      0.00523426693011
  C   -1.19508831703855      0.68236635797794      0.00191475920361
  N   -2.46677702281372      1.17876686470127      0.00078650314541
  C   -3.24269278247141      0.10598294348518     -0.00040508667826
  C   -2.50124179175064     -1.16752063789045     -0.00011660048470
  C   -1.19604666289812     -0.80926463921473      0.00137405990502
  H   -2.91914025412769     -2.16133788929386     -0.00091923543686
  N   -4.57087362056503      0.18853896271907     -0.00175645615810
  H   -5.15220276181207     -0.62812086267975     -0.00253570105938
  H   -5.00590511030405      1.09547263822767     -0.00179932060598
  N   4.56105390808408      0.21583374895990      0.00773581451386
  H   4.87208083195688      1.17116540649834      0.00875940734306
  H   5.24228958421943     -0.52021475605106      0.00857218138298
  H   2.96716780741392     -2.22724570123234      0.00519961420735
