20
Coordinates from ORCA-job ./opt_b97-3c_parallel
  N   4.08271635886845      2.16034885573741     -0.00018071717698
  C   3.36190289425328      1.24684410813345      0.00025151312692
  C   2.51933967506722      0.13332368962080      0.00041241960647
  C   1.14580287167014      0.10466415358576      0.00031929782508
  C   0.80480829240407     -1.32470582849630      0.00049391322868
  N   1.97381521776565     -2.12219527482368      0.00070966503482
  C   2.95762183759646     -1.28726742924348      0.00066367684871
  H   3.99079561340366     -1.60559955543434      0.00078841706093
  C   -0.47149910707136     -1.75285286864271      0.00044158512905
  C   -1.47789853506551     -0.71974712913643      0.00020419979728
  N   -2.77161698695565     -0.86923271766642      0.00009762908487
  C   -3.22997535704691      0.48998298145068     -0.00013386955029
  N   -2.31493287484649      1.43069042442761     -0.00017564512203
  C   -1.13647407219484      0.72099159769565      0.00003617281434
  C   0.15913751787030      1.13052602248882      0.00008889936929
  H   0.43749351090933      2.17471025411029     -0.00003776103231
  N   -4.54909874503965      0.68378073777114     -0.00023965598357
  H   -5.16747112122165     -0.10524525603638     -0.00045082334312
  H   -4.92250266687306      1.61508698846124     -0.00061800445659
  H   -0.74112636979347     -2.79902767950310      0.00056479393848
