24
Coordinates from ORCA-job ./opt_b97-3c_parallel
  N   3.29465354491079      1.40764563358210     -0.11705886091947
  C   2.47359264223641      0.30984501237721     -0.04130018529114
  N   2.99617749529956     -0.93674185262561      0.04617079816243
  C   1.94272192969113     -1.77692780312380      0.09108781968849
  C   0.71324865168401     -1.10185408350594      0.03385658290525
  C   1.05946756684600      0.29312768000908     -0.02579608650377
  C   0.09221051992277      1.30344516612284      0.01406070332566
  N   0.44169425312601      2.62458578833731      0.05096406949569
  H   1.32135725738422      2.83671405507642      0.49456865982811
  H   -0.28973425595775      3.26694722901041      0.30292209689760
  C   -1.25593939219433      0.88590838300627     -0.01849207363240
  C   -2.47920582577021      1.57132929683491     -0.02485670728903
  N   -3.53239528334015      0.72280244377956     -0.02357700937432
  C   -3.01464305092907     -0.52407194398114     -0.00771764186843
  C   -1.61046411125699     -0.50892061491202     -0.00654329735919
  C   -0.63066976678408     -1.52501180593671      0.02411762404441
  N   -0.97135322935272     -2.83469602468193      0.09600135522833
  H   -1.91615556917179     -3.09799722590047     -0.11470728499768
  H   -0.27701875608511     -3.53019183888050     -0.10516903324192
  H   -3.67496361986943     -1.38028390934106      0.01491309751750
  H   -2.64827917357661      2.63904750146271     -0.05335541573800
  H   2.11479642648760     -2.84179726320220      0.16629033382433
  H   3.00077564819872      2.11972653459138     -0.76811856173218
  H   4.26163119760100      1.15084822080116     -0.24878264127030
