25
Coordinates from ORCA-job ./opt_b97-3c_parallel
  N   -4.16355484472714     -2.02349315525571      0.00793683488443
  C   -3.30614552058439     -1.23598451836906      0.00741955204026
  C   -2.39072984180724     -0.18240364220810      0.00707305686584
  C   -2.78400406248094      1.15757298325860      0.00889069295825
  C   -1.60122131207647      2.01959978243818      0.00774149987456
  C   -0.50529869153517      1.22362896730489      0.00522488041338
  C   -0.95958912408488     -0.19439975418306      0.00469308220984
  C   -0.05066038418272     -1.22270373409560      0.00227210370700
  C   -0.41139382052723     -2.58705668692376      0.00150194424534
  N   -0.67904790779276     -3.71618716106479      0.00064962185786
  C   1.34164384003133     -0.85555791464805      0.00022994424388
  N   2.37794764702252     -1.64323237812859     -0.00233802451683
  C   3.45657540709198     -0.71784090913488     -0.00337147488830
  N   3.15342287849786      0.57263133891325     -0.00161905408481
  C   1.79663226094575      0.56134201474933      0.00076771450985
  C   0.88731766334728      1.58584663909447      0.00317630911263
  C   1.24984166980411      2.94772441989177      0.00367384294294
  N   1.47985722698150      4.08596830177325      0.00443566782762
  N   4.68871312054321     -1.20541479345646     -0.00601568161294
  H   5.47797975594855     -0.58433722754681     -0.00689071137922
  H   4.82926196982586     -2.19932287551862     -0.00726778707975
  H   -1.61627195617967      3.09802257863626      0.00873067504383
  N   -4.03148208854675      1.61567377980468      0.01128587711439
  H   -4.23150120395077      2.59871949771559      0.01236674235374
  H   -4.80917971665839      0.97562800823985      0.01184724274996
