24
Coordinates from ORCA-job ./opt_b97-3c_parallel
  N   2.79129394419420      3.55523607874509     -0.00480246227903
  C   2.29698234471725      2.50109152129994     -0.00274284802388
  C   1.78899387953760      1.20191633062528     -0.00098434415332
  C   2.57946081359492      0.05631841114868     -0.00764629939667
  C   1.72762989093488     -1.14860042304913     -0.00341146334870
  C   2.24945819602976     -2.44145623882737     -0.00856033808944
  N   2.77316965528619     -3.48138608840478     -0.01355998393522
  C   0.41795376045543     -0.73254654757113      0.00588831188997
  C   0.41972970635186      0.77175250444438      0.00768667102857
  N   -0.66262544375412      1.49089678541233      0.01585010757879
  C   -1.80768914317250      0.73945682603692      0.02266878747753
  C   -3.09237471351982      1.14459856375917      0.03186861109953
  C   -3.93288441408925     -0.08025246252595      0.03609054783240
  C   -3.14690015745024     -1.21613967690977      0.02936552245420
  C   -1.80768201576587     -0.77595921658066      0.02081785175652
  N   -0.69923885049949     -1.48865312708090      0.01248058969588
  H   -3.47647432167218     -2.24087412198078      0.03032224055454
  N   -5.26560823898325      0.00485015452439      0.04524370618007
  H   -5.84127398184319     -0.81796112515355      0.04835278168679
  H   -5.73037868882891      0.89373360192681      0.04969668572389
  H   -3.46339717197834      2.15728424378335      0.03562921412940
  N   3.90437572498730     -0.01453443129022     -0.01651977581448
  H   4.37509244430333     -0.90293334406656     -0.02086802564438
  H   4.46192462246467      0.82274694593472     -0.01931108440277
