26
Coordinates from ORCA-job ./opt_b97-3c_parallel
  N   -3.62363019438013     -1.34515896242143     -0.02528587158047
  C   -2.85683296830406     -0.18518695072422     -0.03635387516904
  N   -3.43915612112120      1.03614007250263      0.00606702984452
  C   -2.43872264166110      1.94126074135684     -0.00800359355537
  C   -1.17466763933955      1.32674032596176     -0.06954487843351
  C   -1.45220013169912     -0.09568053440090     -0.06609078541944
  C   -0.42231212671360     -1.04086657734117      0.03231482546817
  N   -0.68955715500766     -2.39017858636248      0.17707059477060
  H   0.00415185012516     -2.88839970288024      0.71324972674353
  H   -1.61759633801728     -2.57670108632373      0.52968384019771
  C   0.88522012314125     -0.54692213258420     -0.03648596860529
  C   2.16105161544492     -1.15223415412046     -0.04172534103117
  N   3.16882040064707     -0.24547129438483     -0.01719777403995
  C   2.57995779402942      0.96475078694623     -0.01740362148230
  N   3.32895760392933      2.09150878902959     -0.04521010551889
  H   4.29830728659605      1.98478742039253      0.19962444940201
  H   2.90192422015624      2.95620114864821      0.23239658043330
  C   1.15137959771281      0.87361031119270     -0.05361677499555
  C   0.13430482544030      1.80543806113870     -0.05677380859367
  H   0.33057425034642      2.87188335151376     -0.04706082480695
  N   2.44822572357265     -2.48891305007678     -0.05344451428834
  H   3.41752914931347     -2.68492353016802     -0.24905180227168
  H   1.81545842764550     -3.06646045768304     -0.58350186978891
  H   -2.65367908631562      2.99944103948178      0.01983074075845
  H   -3.40502863219517     -1.97922113067523     -0.78101924115330
  H   -4.60713044714604     -1.11428355311767     -0.04640631868435
