26
Coordinates from ORCA-job ./opt_b97-3c_parallel
  N   -4.15813979884217     -1.99281389364505     -0.00767030241605
  C   -3.27875196125165     -1.23005909447568     -0.00504052411231
  C   -2.33789235762971     -0.20051517776432     -0.00256121440038
  C   -0.96744852824333     -0.21282902948916      0.00272819305909
  C   -0.57254166669376      1.21102449834264      0.00261806369181
  N   -1.66529675445309      2.03967704051540     -0.00252267762499
  C   -2.70850881361812      1.24139757817187     -0.00561539049667
  N   -3.97426750925748      1.65348264025835     -0.01094140374307
  H   -4.17463999312054      2.63802683935754     -0.01287676387652
  H   -4.73557682944469      0.99877409056612     -0.01317334638316
  C   0.74976308493138      1.56553305851464      0.00730467166406
  C   1.17921430620850      2.90906838968383      0.00741609698769
  N   1.60597694947637      3.98885876304454      0.00774067626172
  C   1.72860186706741      0.51022093522576      0.01226199622802
  C   3.07803797948583      0.55909825180966      0.01740706406303
  C   3.57317722380401     -0.83833430650166      0.02088772850768
  C   2.50694453325368     -1.71018392434377      0.01775585460409
  C   1.33121046052946     -0.92251952304183      0.01234751015712
  C   -0.00474835247930     -1.26902740774753      0.00761028054442
  C   -0.39628247016505     -2.62474283489877      0.00770605330990
  N   -0.68084797563407     -3.75077099057326      0.00820223013936
  H   2.54335815817430     -2.78600052515473      0.01908925330803
  N   4.88548777523970     -1.11031887739687      0.02628605005466
  H   5.22180730490112     -2.05596758810869      0.02860882490995
  H   5.56953011361348     -0.37750388051813      0.02800261161095
  H   3.69910637024778      1.44141842166910      0.01879677885158
