22
Coordinates from ORCA-job ./opt_b97-3c_parallel
  N   -4.38093481258119     -2.21395902935414     -0.00676794669818
  C   -3.60011972103532     -1.35136836666290     -0.00545035196445
  C   -2.67913939214035     -0.30157307818157     -0.00426721394669
  C   -1.30305666744727     -0.37637596757899      0.00067203868232
  C   -0.86328343087490      1.01807021143156     -0.00085819583938
  N   -1.95108123985050      1.89915696477520     -0.00674187614809
  C   -3.00326318610752      1.13985946065174     -0.00858223353550
  H   -4.00591796865366      1.54292152580089     -0.01300022166609
  C   0.46053396084416      1.33743026964681      0.00479186244845
  C   0.94439814833954      2.66475574598188      0.00224530021598
  N   1.41990418452823      3.72308585687571     -0.00028300537677
  C   1.39103057868792      0.22967340973569      0.00975956310711
  C   2.74411488020963      0.18510548159831      0.01449362443813
  C   3.07534531326237     -1.25765003447891      0.01662725978729
  N   2.01622041934902     -2.03072337621052      0.01504254675926
  C   0.93332349301220     -1.16578636134310      0.01257170281000
  C   -0.39256528734211     -1.46628078713594      0.00680654419395
  H   -0.74322017745848     -2.48843613240220      0.00857986391842
  N   4.33689848094415     -1.71817045966427      0.05305111250773
  H   5.11462861798975     -1.10766641647078     -0.11087191620859
  H   4.48832364380547     -2.70768012262887     -0.03890520731505
  H   3.43685905411885      1.01281738771440      0.01963608743015
