21
Coordinates from ORCA-job ./opt_b97-3c_parallel
  N   -3.97399056501657     -1.23218576265042      0.00074869389141
  C   -3.13343032126919     -0.42820570526410      0.00094963916498
  C   -2.13782927829373      0.55466184372617      0.00116304383250
  C   -0.70900996179261      0.33813012536619      0.00085724542239
  C   -0.09636043258295      1.64045358467205      0.00124166252939
  C   -1.12279921042966      2.59845334864037      0.00175242958982
  C   -2.36305556137686      1.93366342540630      0.00170138072816
  H   -3.33492245358030      2.39708252908464      0.00202192929449
  H   -0.97188624760890      3.66613024481110      0.00212126411503
  N   1.23590109081641      1.87153011379119      0.00111910511179
  C   1.98404207891564      0.79004338807293      0.00060484745334
  C   3.43031128776006      0.70763124328161      0.00034721245143
  C   3.78057485713263     -0.62192795002394     -0.00019996905351
  C   2.59408775970294     -1.41432013022251     -0.00030398095071
  C   1.48603786306656     -0.56556579554431      0.00018493764034
  C   0.09295060343762     -0.79248480670108      0.00031916620985
  C   -0.41051720688810     -2.11797306857712     -0.00009047689388
  N   -0.76125265939240     -3.22318717171758     -0.00045739741639
  H   2.56029204249985     -2.49367557620027     -0.00069719888864
  H   4.78314230046793     -1.01668285693800     -0.00050501098442
  H   4.09113918533164      1.55941946838678      0.00055659005263
