22
Coordinates from ORCA-job ./opt_b97-3c_parallel
  N   -3.87988550128131     -2.13084791384379      0.00347701534440
  C   -3.00971881317651     -1.35869609090456     -0.00997458156449
  C   -2.05524212272872     -0.34076479442637     -0.01925817168937
  C   -0.68644622391025     -0.44028351794690     -0.01437356082336
  N   0.04435539224950     -1.59732515338542     -0.00846464317746
  C   1.32291213990759     -1.41452429008764     -0.00188240243258
  N   2.27408554653299     -2.46489726152806      0.00395044532529
  C   3.41988047848319     -1.86296174517270      0.00909338384888
  C   3.32416329362526     -0.38409193830778      0.00732512599575
  C   2.00007704027272     -0.10618805687923      0.00036359573189
  C   1.21410060217071      1.09684616570077     -0.00388198754550
  C   1.82695860028507      2.36677346699713      0.00140108905535
  N   2.34229982190264      3.40780575935945      0.00614053116544
  C   -0.15035266001262      0.93182755168488     -0.01247607405284
  C   -1.24648938012634      1.84146792706342     -0.01464851705644
  C   -2.40338466992121      1.10559522623824     -0.01832383893244
  N   -3.68882161268163      1.50229742709120     -0.05515675234566
  H   -3.92358560974158      2.47085009219518      0.05955376882002
  H   -4.42800314327951      0.83614593736185      0.08236325487610
  H   -1.16757968015601      2.91569797493292     -0.01699224538005
  H   4.15038111356311      0.30984946423828      0.01086630641496
  H   4.34788796052286     -2.41897085768088      0.01430885732209
