20
Coordinates from ORCA-job ./opt_b97-3c_parallel
  N   -0.52570755176438     -3.52673287458543     -0.00008114504675
  C   -0.51380087801927     -2.36702913760092     -0.00011542823708
  C   -0.45607895332076     -0.95624114897589     -0.00018023254318
  C   0.82739874708549     -0.26427650650539     -0.00027172788243
  N   2.01143579426786     -0.79853100509934     -0.00030047272151
  C   2.85897955964444      0.35641555532903     -0.00041526383364
  N   2.26851791475214      1.52755231991856     -0.00045916732951
  C   0.92788501058747      1.20494390100770     -0.00035776532894
  C   -0.18300646860953      1.98355776034490     -0.00035117432140
  C   -1.44455357409974      1.31240829835345     -0.00025344501903
  C   -2.73307081585114      1.75069462881125     -0.00021278981791
  C   -3.57526504093920      0.54398838269304     -0.00011141719321
  N   -2.89987447451428     -0.56560713581802     -0.00008394336645
  C   -1.55253700175902     -0.15482609536821     -0.00017010025461
  H   -4.65727864764687      0.53942137677613     -0.00005914667112
  H   -3.08427808333262      2.77066506108102     -0.00024918650510
  H   -0.12473023969899      3.06276271097055     -0.00041467675056
  N   4.17622617556210      0.13939460024154     -0.00032177441686
  H   4.52377804994257     -0.80074442877625     -0.00106933275626
  H   4.81589105961368      0.91185110830229     -0.00107290570444
