22
Coordinates from ORCA-job ./opt_b97-3c_parallel
  N   -0.02465127075603     -3.58550215718251     -0.00337093238499
  C   -0.04574193134211     -2.42500167991187     -0.00303716699299
  C   -0.05004766784126     -1.01484656756174     -0.00271459526661
  C   1.18389983850266     -0.26806965214818     -0.00212383942962
  N   2.40051668933100     -0.73106303310583     -0.00180281445408
  C   3.17721578771636      0.46339532548660     -0.00127984190660
  N   2.53051665919986      1.61074865307138     -0.00126006162575
  C   1.21410441897603      1.22121112666437     -0.00179260146830
  C   0.07043078039306      1.94978182332462     -0.00202431324557
  C   -1.15505146338327      1.22294055920832     -0.00259207998395
  C   -2.45409998133157      1.61311640362428     -0.00293371072436
  C   -3.23406298354247      0.36392574387154     -0.00346103674262
  N   -2.49248281705787     -0.72962651835794     -0.00346309201110
  C   -1.20311700496462     -0.27238711576025     -0.00294104197047
  N   -4.56699707520723      0.32188096083620     -0.00396101894980
  H   -5.12388153148986      1.15479782568719     -0.00360295871087
  H   -5.02833036446076     -0.57154323290242     -0.00408622007195
  H   -2.85000746142655      2.61645184285695     -0.00284996438864
  H   0.08085593546397      3.03057695034690     -0.00178091309310
  N   4.50193960346127      0.32695093107882     -0.00079869089300
  H   4.90329303811350     -0.59197049233966     -0.00110527418891
  H   5.09403112234587      1.13669443091321     -0.00064037359670
