23
Coordinates from ORCA-job ./opt_b97-3c_parallel
  N   3.59297544825012      1.44488751338915      0.12341383523164
  C   2.79531211399168      0.33998342182791      0.03942154374176
  C   3.24566481448374     -1.00252423924427      0.02579215637916
  C   2.14307730305231     -1.84459686309730     -0.00516911031289
  C   0.96132631045857     -1.06114049588241     -0.00910014611954
  C   1.37115292633938      0.33311235444302      0.02471037785307
  C   0.43200085374001      1.35232967789174      0.03034976742741
  C   -0.91157948871331      1.00380596199206      0.00026601111601
  C   -2.11619734150093      1.74543840523745     -0.00505108203906
  N   -3.20083365290304      0.96060906622870     -0.03645020034338
  C   -2.73747556532989     -0.32432918569889     -0.05153917360448
  N   -3.61969327386230     -1.34920664905791     -0.12541351297020
  H   -4.57644215819818     -1.11691221213138      0.08043377003612
  H   -3.32116748762768     -2.26433340684458      0.15926534587580
  C   -1.32008325354129     -0.37898103304578     -0.03470514520796
  C   -0.37821998079387     -1.40409805517442     -0.03987552734766
  H   -0.67158008282023     -2.44840209007613     -0.07283560936347
  H   -2.22052398667462      2.82124375668488      0.01828474189682
  H   0.72295265205085      2.39749555973752      0.06432800614821
  H   2.17862889782947     -2.92338820839739     -0.03004018360370
  H   4.28079887036778     -1.30858165140734      0.03926252135799
  H   4.55422630250878      1.33364773428701     -0.14874683750168
  H   3.19581293269266      2.32110303353839     -0.16791072324995
