21
Coordinates from ORCA-job ./opt_b97-3c_parallel
  N   0.61122569731258      3.64061889065865     -0.00581048089900
  C   0.50570751574820      2.48387685525505      0.00059820837234
  C   0.39230648717921      1.07703435094804      0.00602861329779
  C   1.56268050239115      0.23841600644833     -0.00205939393291
  C   2.89806584366023      0.46154166474765     -0.01386781786766
  C   3.52273773990394     -0.87566689986738     -0.01644268307440
  N   2.67188849639841     -1.85462666978102     -0.00750361961911
  C   1.40539465761060     -1.22459607596866      0.00216708428849
  N   0.27992248978658     -1.85892869379741      0.01365120923795
  C   -0.82725294928469     -1.04795889473645      0.02184448277180
  C   -2.12811538185191     -1.44415145790879      0.02977426360485
  C   -2.97252367642260     -0.23928516589827      0.02798594656831
  C   -2.17390748316759      0.87699690674769      0.02625260387065
  C   -0.81563636362818      0.42977846668218      0.02146262910123
  H   -2.49533361490009      1.90538005970958      0.02798221334629
  N   -4.32678158033981     -0.32252104514187      0.08764771618057
  H   -4.86406324300465      0.50770307186132     -0.09027102891781
  H   -4.76753201569908     -1.17773751768965     -0.19968115444993
  H   -2.48350076201093     -2.46322461710336      0.04153818358978
  H   4.58916426844451     -1.05804625982951     -0.02509659849261
  H   3.41404711757415      1.40930722526387     -0.01981293657661
