22
Coordinates from ORCA-job ./opt_b97-3c_parallel
  N   -4.62859614883366     -1.81762489790910      0.00225447027828
  C   -3.66879846915995     -1.15994188226067      0.00191364666480
  C   -2.59556295705256     -0.27189188987039      0.00146887783676
  C   -1.24489833626753     -0.50085135679176      0.00118650044849
  C   -0.61972569182459      0.83148213588146      0.00077485405479
  N   -1.55692851193877      1.82836497837618      0.00080248545827
  C   -2.72081983643767      1.21600982123844      0.00120606962049
  N   -3.89788696562252      1.83366767991320      0.00135801653627
  H   -3.92824842874141      2.83892905680807      0.00119970948615
  H   -4.76118112994127      1.32034763132520      0.00170984289737
  C   0.75218534237856      0.92961226685223      0.00045706134432
  C   1.42492790654906      2.17062753180265      0.00013602955382
  N   1.98920499620839      3.18408943480330      0.00011337317617
  C   1.44964488007317     -0.31697987927097      0.00051789289098
  C   2.76493652970088     -0.68777979237469      0.00026065248588
  C   3.92462955780377      0.08838118021365     -0.00020224558964
  N   4.93188650552838      0.67047019320927     -0.00049886548256
  C   2.75666257875504     -2.18502197271216      0.00054702322970
  N   1.57546044554602     -2.69617825165366      0.00094139401878
  C   0.69449156201682     -1.59080342505779      0.00094676638746
  N   -0.59045514224374     -1.70501946531480      0.00126967273145
  H   3.65366621150332     -2.78845926980776      0.00043748967164
