21
Coordinates from ORCA-job ./opt_b97-3c_parallel
  N   4.27253103002540      0.02181432532356      0.12207178859119
  C   2.90047023004736      0.08209216721843      0.04083181044071
  C   2.08444533793970      1.18057729246803      0.03627276643047
  C   0.71779222182766      0.71117732492352      0.02778742181714
  C   0.75984767875855     -0.76378259489504      0.02824234295369
  C   2.07678106488160     -1.12639139685288      0.04289411187202
  H   2.47173944031125     -2.13322945180222      0.06109006372847
  C   -0.45192281532467     -1.50119723557813      0.01579605446358
  C   -1.60154815929661     -0.77360695317900      0.00230461991317
  C   -3.01281371617832     -1.13634775420505     -0.01407771058199
  C   -3.73972375266931      0.01408781221824     -0.02541155637930
  C   -2.83206030086250      1.14603224576431     -0.01684337775211
  C   -1.53854664813773      0.67717785599182      0.00001301787261
  N   -0.37994008192578      1.41450958625345      0.01407001551869
  H   -3.11960503237760      2.18653485695105     -0.02247437529139
  H   -4.81545012164846      0.08987254533194     -0.03852297451476
  H   -3.39644894901021     -2.14506083182316     -0.01568083218155
  H   -0.44613962262472     -2.58559405589748      0.01653792748454
  H   2.37955437560742      2.21700851270048      0.03733686061887
  H   4.70071724627688     -0.79069924380443     -0.28919336553645
  H   4.76020026298008      0.86902366279256     -0.11609675306759
