17
Coordinates from ORCA-job ./opt_b97-3c_parallel
  C   -3.31652550245888     -0.00541275330746      0.00260946656822
  C   -2.40534742274959     -1.13955018688794      0.00206394801737
  C   -1.10939401698365     -0.67702455881793      0.00141662166172
  C   -1.16654461708593      0.77490521086597      0.00153360997909
  C   -2.59050504756644      1.13875643110254      0.00229638232086
  H   -2.96988148197080      2.14850968902029      0.00253845665050
  C   -0.02830527960896      1.51091294390310      0.00100150818432
  C   1.18036199880892      0.74583134811598      0.00034655116500
  N   2.43127645225419      1.13597138271479     -0.00022520390626
  C   3.13928845330786     -0.09816244470063     -0.00066163854521
  N   2.43540885027038     -1.19266200342721     -0.00039909083826
  C   1.12132975846717     -0.72109170776569      0.00027430536077
  N   0.03417703196494     -1.43178810553269      0.00079477074658
  H   4.21873451990172     -0.08884640845326     -0.00118511425976
  H   -0.00504538488975      2.59330026402789      0.00105790708629
  H   -2.69291525733318     -2.18009728917538      0.00215585823982
  H   -4.39144010312800     -0.08362049668237      0.00316377306896
