20
Coordinates from ORCA-job ./opt_b97-3c_parallel
  N   3.45867539361062      2.36771889688259     -0.00127371373407
  C   2.68919485630643      1.49430475114172     -0.00072409373355
  C   1.82816649163383      0.39620117518652     -0.00023028042861
  C   0.47055069929107      0.34920360721181     -0.00014909683492
  C   0.11961831070406     -1.10618803291706      0.00050766468322
  N   1.26810043261356     -1.88122186743676      0.00081011908516
  C   2.26531740710119     -1.04390952686357      0.00040824804657
  N   3.55464974595622     -1.38173319070898      0.00072176739775
  H   4.28014040539575     -0.68826943467009     -0.00040769964385
  H   3.81001792362157     -2.35374582824701      0.00063320230230
  N   -1.08805963355304     -1.56382819144657      0.00072793020066
  C   -2.06497894676560     -0.59528337891225      0.00036375983570
  N   -3.34090698583338     -0.85155354775926      0.00054578448376
  C   -3.99038203248490      0.42189629653806      0.00007113244315
  C   -3.13411847519455      1.46507569033842     -0.00041578256855
  C   -1.81163788153563      0.87282453788012     -0.00025056763154
  C   -0.54775339918787      1.34816063045432     -0.00054050703347
  H   -0.29826556033625      2.40184200410781     -0.00102520512133
  H   -3.36854154899840      2.51649229393264     -0.00082509354256
  H   -5.06832460254445      0.44431973658746      0.00014654809414
