20
Coordinates from ORCA-job ./opt_b97-3c_parallel
  N   -4.69237435260558     -1.33980552451532     -0.00916804478374
  C   -3.81078103653555     -0.58129846168167      0.00420398541444
  C   -2.74225446227378      0.31842873087681      0.00304472230490
  C   -1.32187881231170     -0.04702783648054      0.00121337488455
  C   -0.57801867393847      1.19250497325549     -0.00241055511994
  C   -1.49432791839550      2.24019894490380     -0.00171352939916
  C   -2.81282410104305      1.70013593373474      0.00139345871704
  H   -3.72304119855887      2.27541695521994     -0.00013679142543
  H   -1.24720727760063      3.29027409382809      0.00079988357568
  N   0.77811138061132      1.23783983866672     -0.00489687344914
  C   1.32192396976128      0.04698839928524     -0.00152270445956
  C   2.74227997214910     -0.31847418060026     -0.00467406266100
  C   3.81078547814193      0.58121216943191     -0.00611085290208
  N   4.69258647781055      1.33949707331876      0.00644174917069
  C   2.81284798995206     -1.70017153603673     -0.00422263466282
  C   1.49434477180273     -2.24027752268398      0.00021561250571
  C   0.57804396713563     -1.19255854504714      0.00250783365437
  N   -0.77809642756667     -1.23791244471894      0.00420888448292
  H   1.24724884434287     -3.29036142509407     -0.00305147291055
  H   3.72310506962232     -2.27541102156281     -0.00379310303698
