21
Coordinates from ORCA-job ./opt_b97-3c_parallel
  N   -4.45340490149197     -2.11686532242263      0.00223350597945
  C   -3.64055704735367     -1.28418647024059      0.00143542960965
  C   -2.68373866374289     -0.26840268804145      0.00099628702847
  C   -1.31366321061349     -0.38932109590924     -0.00012252377000
  C   -0.82657434697489      0.99718857813454      0.00013571559480
  N   -1.89174241669798      1.91419778180186      0.00132701969473
  C   -2.96282424335665      1.19005439295321      0.00181456418875
  H   -3.95350560509805      1.62236596150357      0.00276112324741
  C   0.50041833677626      1.28998035387079     -0.00060868695716
  C   1.01633904048868      2.60279032240974     -0.00014066075250
  N   1.47420521728365      3.66848757071105      0.00083722086260
  C   1.39303125357539      0.13722960309619     -0.00180893908781
  N   2.68981646171949      0.14492006856049     -0.00272769628184
  C   2.99280650814535     -1.25902308141299     -0.00359230012938
  N   1.97469643994258     -2.08887606512556     -0.00324603635959
  C   0.88683043305766     -1.25214536299269     -0.00208499489543
  C   -0.44792206727695     -1.51356131787041     -0.00125900213511
  H   -0.83927890259585     -2.52055789542183     -0.00142729874474
  N   4.27961495608215     -1.59702009585393     -0.00464712352335
  H   4.54882036726810     -2.56409597453662     -0.00535719049154
  H   4.98178363486306     -0.88057008771349     -0.00491429807742
