22
Coordinates from ORCA-job ./opt_b97-3c_parallel
  N   -3.11930620669554     -1.43580765219210     -0.09580112023404
  C   -2.37976680661085     -0.29868997290348     -0.01478997669886
  N   -3.00927064737150      0.91297623506652      0.05164701812191
  C   -2.03591060382116      1.82855376029922      0.08132216792939
  C   -0.74270427056782      1.25130607663734      0.03907675652096
  C   -0.97198014080042     -0.16860556037890      0.01024477483184
  C   0.08873839059179     -1.08443164473026      0.03640629367605
  N   -0.13533527731269     -2.43559355038771      0.09246770258458
  H   0.66917952918558     -3.00177642151824      0.30202409776783
  H   -0.94981326338040     -2.72468283640051      0.60979206990556
  C   1.38925099551554     -0.54337451552677     -0.03157737263328
  C   2.67607242347569     -1.09722901717576     -0.04189302032185
  N   3.64038705150150     -0.14120591802536     -0.06395047696501
  C   3.00347341765414      1.04255648401551     -0.05642405015827
  C   1.59984448628714      0.88652163482008     -0.03873647509823
  C   0.53709608560896      1.78182137365712      0.01236812687589
  H   0.70221065143805      2.85237301655999      0.02621256365506
  H   3.55761822462308      1.97013356498142     -0.05969687111854
  H   2.95902746087089     -2.14094783386471     -0.05497629856624
  H   -2.27497681193321      2.88170344547133      0.12287159905894
  H   -2.73035781267416     -2.19782092807183     -0.62682039046452
  H   -4.09877713528459     -1.27311010453289     -0.27052359046917
