22
Coordinates from ORCA-job ./opt_b97-3c_parallel
  N   -2.36211757990809     -3.59406386111580     -0.00022634773477
  C   -1.90728800646980     -2.52308560521359     -0.00015106589852
  C   -1.44589361514219     -1.20598553108216     -0.00013225849208
  C   -2.26651919718296     -0.09442105910182      0.00015134039828
  C   -1.42423293879691      1.12174045251621      0.00006614464079
  C   -1.95093609616721      2.41662970310600      0.00021615646131
  N   -2.44023860318979      3.47215828216860      0.00026859619470
  C   -0.10782978628563      0.74092295949058     -0.00025450865056
  C   -0.07139675982454     -0.74090327095893     -0.00040458881533
  N   1.01497379237168     -1.44836988564480     -0.00074780672355
  C   2.17368321330689     -0.70385687458793     -0.00096385683444
  C   3.47064938248719     -1.12059199112683     -0.00141758169870
  C   4.27917292080980      0.10931954000687     -0.00148108655534
  N   3.57274099652845      1.20123111811321     -0.00111265429817
  C   2.23142181071940      0.75453613391804     -0.00079844824968
  C   1.09882976747125      1.49335496685443     -0.00046468842592
  H   1.10083030802788      2.57509884994663     -0.00037521476580
  H   5.36037334041815      0.14192977018065     -0.00179040459354
  H   3.83326428601189     -2.13598854678862     -0.00168098321577
  N   -3.60021933036271     -0.03932273057879      0.00052758291427
  H   -4.14535166579205     -0.88365265550472      0.00035867372159
  H   -4.08714155283059      0.83859247880279      0.00039048082121
