24
Coordinates from ORCA-job ./opt_b97-3c_parallel
  N   -3.46697698042229     -2.59502317576259      0.03008057836948
  C   -2.84793058845345     -1.60851960693273      0.00412390187666
  C   -2.16910135254139     -0.38915357349668     -0.01500118526047
  C   -2.85347189681879      0.93143655690377     -0.00261254310128
  C   -1.90940164699876      1.91374547126664      0.00115838639725
  C   -0.61187441534503      1.28845676672065     -0.00893608040962
  C   -0.81253622370494     -0.17366359390518     -0.01523227658903
  C   0.26875189597332     -1.09833436606055     -0.01844108645724
  C   1.52535652529672     -0.58928186645347     -0.01967048245143
  N   2.73639374372854     -1.27094532070013     -0.01896369544585
  C   3.64975938225854     -0.33146867197353     -0.01446270284174
  C   3.08971814625822      1.03500395731468     -0.01015915192579
  C   1.74246802880324      0.87038550151864     -0.01112314616845
  C   0.64820025509655      1.79350613229027     -0.00705017146700
  H   0.83516800157710      2.85982187923034     -0.00105213423099
  H   3.65108482053321      1.95735410466549     -0.01397593540413
  N   4.97486032408684     -0.58595873702068     -0.06163480235427
  H   5.62681329048829      0.12857772961793      0.20362858941922
  H   5.26365627510673     -1.53852949665231      0.08245335028433
  H   0.08615789888652     -2.16409583770631     -0.02433713752210
  H   -2.08956252585204      2.97637444068529      0.00133385304365
  N   -4.21021088788882      1.00848761525422     -0.05975831108635
  H   -4.73699466384020      0.19718820800983      0.21602221963525
  H   -4.64101090182817      1.88514146518638      0.17371989878987
