26
Coordinates from ORCA-job ./opt_b97-3c_parallel
  N   -4.46036288640946     -2.25603800159782      0.02259762315083
  C   -3.70404122844333     -1.36889686324211      0.00098891856343
  C   -2.82716180309189     -0.28798917418454     -0.01986718619214
  C   -3.19905434454246      1.04768883770099     -0.01711687748767
  C   -1.99759424262437      1.86926153392237     -0.02076551355505
  C   -0.90282059179548      1.05256920878850     -0.02156006881625
  C   -1.37246614480671     -0.33222033077972     -0.02352892338841
  C   -0.49349260001385     -1.36193722273400     -0.02315726231136
  C   0.90285561386039     -1.05257535156375     -0.02158459495310
  C   1.99762994873397     -1.86926759081397     -0.02079241923455
  C   3.19908954264001     -1.04769484689676     -0.01704926937753
  C   2.82719661919948      0.28798352896960     -0.01973698170149
  C   3.70407439236564      1.36889081811881      0.00121552509315
  N   4.46039405365513      2.25603142909944      0.02290499555637
  C   1.37250098711001      0.33221450949788     -0.02345378458077
  C   0.49352745785007      1.36193127764664     -0.02305800600866
  H   0.82345333383707      2.39292171387535     -0.02499571592100
  N   4.45231641222648     -1.55317230713358     -0.06573102739808
  H   5.22475265089419     -0.92835531852263      0.09180926585073
  H   4.60436324877878     -2.50622454211008      0.20913884815335
  H   1.99653928786578     -2.94944927772202     -0.02969938862569
  H   -0.82341859395501     -2.39292783300969     -0.02516792606283
  H   -1.99650274919962      2.94944330086488     -0.02960994295521
  N   -4.45227853447045      1.55316971178908     -0.06581799707700
  H   -4.60433586664724      2.50620627324388      0.20909962075892
  H   -5.22472142731708      0.92834415189322      0.09165446462000
