25
Coordinates from ORCA-job ./opt_b97-3c_parallel
  N   4.36804035343757      2.19446823229585     -0.01602713585847
  C   3.58127590419638      1.33495554130565     -0.00150910384115
  C   2.70194566397493      0.25377533116309      0.00950690280618
  C   3.15141917280926     -1.17086308238550      0.00570613532847
  C   2.05369185988202     -1.98436089463354      0.00316853272226
  C   0.88919937780776     -1.15396658757874      0.00487758689795
  C   1.33102012649322      0.26334003971101      0.00721591517332
  C   0.41774928508057      1.35095010216378      0.00464149125043
  C   -0.90615223083718      1.05317189682640      0.00195397473422
  N   -1.98437939686254      1.92030321477064      0.00026660680095
  C   -3.04790228505538      1.15763340796741     -0.00227119913138
  C   -2.72309499557371     -0.29743648778619     -0.00255761326518
  C   -3.66390370654217     -1.32448285601654     -0.00532461368423
  N   -4.49992302664355     -2.13604650439991     -0.00780390993868
  C   -1.35206527928173     -0.35794466233148      0.00027105810822
  C   -0.44258428160045     -1.44488747402322      0.00115103258367
  H   -0.80787637747319     -2.46304343108071     -0.00119937351487
  N   -4.30620963859101      1.60601946625727     -0.00530533897427
  H   -5.08570716877612      0.97453187160442     -0.00337411940091
  H   -4.47868622571120      2.59530033435061     -0.00229447263376
  H   0.76991268441602      2.37278053720020      0.00585032057411
  H   2.05412702280109     -3.06164288534773      0.00501507549845
  N   4.46404408102942     -1.46854598127845      0.04112222292919
  H   4.77240992775376     -2.41505713659438     -0.08299881130793
  H   5.14671144406621     -0.74646640625993     -0.10668603615656
