21
Coordinates from ORCA-job ./opt_b97-3c_parallel
  N   -3.14229348056410     -2.47762999529986     -0.00185933221907
  C   -2.46611706955507     -1.53122396000575      0.02134858124089
  C   -1.75320907777572     -0.33019018376691      0.03632719915418
  C   -2.40188619698873      1.00100228053382      0.03351773155893
  C   -1.42853065600653      1.95824768979046      0.02346685104508
  C   -0.14495430854793      1.29883383572518      0.01998016747675
  C   -0.38790391978324     -0.14408260602924      0.02452905710654
  N   0.56613077843721     -1.12626941744053      0.01435471098734
  C   1.77885168264085     -0.67862822456937      0.00237374092419
  N   2.93094292490867     -1.50229422513157     -0.00778048797804
  C   3.92394919830153     -0.66938992618076     -0.01696764768178
  C   3.51494365798704      0.74958137604088     -0.01418694206076
  C   2.15694442527293      0.74477323266350     -0.00205760111421
  C   1.13967481042223      1.74515412221799      0.00512717135768
  H   1.39087408521627      2.79815603831789     -0.00121132619956
  H   4.17980220949698      1.60015851601972     -0.02064202272469
  H   4.94879313941426     -1.01636188991894     -0.02608333995421
  H   -1.58208443058793      3.02517990950131      0.02699322283700
  N   -3.75680632077970      1.11926315053503      0.10781883508308
  H   -4.30910848995924      0.32817394277988     -0.17705150777464
  H   -4.15870968194980      2.00889642151725     -0.12872922906472
