23
Coordinates from ORCA-job ./opt_b97-3c_parallel
  N   -3.40321312945107     -2.60219135643870      0.01630615683475
  C   -2.75624594873925     -1.63396588138790     -0.00198511442217
  C   -2.09643297345510     -0.40583695098315     -0.01569171390817
  C   -2.81617841581493      0.90088193090606     -0.01088240621940
  C   -1.90554553622018      1.92037659018942     -0.00443473294177
  C   -0.59817163459059      1.33993777217094     -0.00536995239841
  C   -0.75233480974787     -0.14011193489828     -0.00975066534128
  N   0.25912513223935     -1.05615947500625     -0.00548930233861
  C   1.45063191032673     -0.53922482895851     -0.00015291733184
  N   2.62156223211367     -1.25972862590891      0.00325325049498
  C   3.57162227006706     -0.34830397789227      0.00764341144598
  C   3.08059117562793      1.04539220741223      0.00772564083535
  C   1.73197148608342      0.94119935882956      0.00278037848037
  C   0.65626454694535      1.86735450892137      0.00140243262165
  H   0.83672182217589      2.93496198548906      0.00604202516619
  H   3.69013600487741      1.93626930823214      0.01133037347298
  N   4.86904549570897     -0.66386260345684      0.01266443507984
  H   5.13727349914967     -1.63264459950443      0.00965672429964
  H   5.58443145015764      0.03757066302756      0.01142117522561
  H   -2.12548664587628      2.97547049182366     -0.00665602065482
  N   -4.16355581336508      0.93170914514593     -0.05349882719833
  H   -4.64968611112427      1.79545686918901      0.10165933537917
  H   -4.68218743858846      0.08738210649827      0.11469229201830
