24
Coordinates from ORCA-job ./opt_b97-3c_parallel
  N   4.48730428902067      2.16943730444923     -0.00450115314574
  C   3.66044128018623      1.34920300367461     -0.00418649570059
  C   2.74154831555521      0.30121298231548     -0.00393082504027
  C   3.08796985817868     -1.04785154362365     -0.00503828920587
  C   1.88233543488978     -1.88387609867316     -0.00443966365510
  C   0.80767082804071     -1.06177666260548     -0.00299274423720
  N   -0.52114081141684     -1.39299319009152     -0.00199633369367
  C   -1.30393438991320     -0.35456017276038     -0.00069778554714
  C   -2.74173022871299     -0.30106671930122      0.00062175104229
  C   -3.66062461728297     -1.34905553305290      0.00087932999616
  N   -4.48748970695936     -2.16928772766501      0.00119537512836
  C   -3.08815169699679      1.04799789872906      0.00173004546415
  C   -1.88251690982533      1.88402237289052      0.00113129326358
  C   -0.80785270076949      1.06192254999423     -0.00031634465814
  N   0.52095913242964      1.39313909103472     -0.00131308178388
  C   1.30375251605421      0.35470578833957     -0.00261142202319
  H   -1.87308519540786      2.96266493266365      0.00175551579655
  N   -4.32156054182524      1.55167041554538      0.00310940052755
  H   -4.48459223206339      2.54098427910805      0.00402053755823
  H   -5.12176065088959      0.94167741456598      0.00359856901844
  H   1.87290411341466     -2.96251866008709     -0.00506407961060
  N   4.32137883519271     -1.55152396689410     -0.00641799237176
  H   5.12157898553755     -0.94153112743134     -0.00690259684087
  H   4.48441022236295     -2.54083786582461     -0.00732116308126
