23
Coordinates from ORCA-job ./opt_b97-3c_parallel
  N   -3.30211034242126     -2.74415105487311      0.00032613758904
  C   -2.78398428536878     -1.70162916059746     -0.00001822409615
  C   -2.28357239791492     -0.39919319008308     -0.00022939004388
  C   -3.10012219062513      0.73024247330067     -0.00041479180227
  C   -2.26615333863725      1.92557729103691     -0.00055437890466
  C   -0.96013569259279      1.53270743035607     -0.00045140231709
  N   0.13036173976051      2.36147012816368     -0.00051758495582
  C   1.26688145210345      1.74797299196332     -0.00038446837865
  N   2.51576425195761      2.40567489745887     -0.00043203707345
  C   3.39575236887598      1.46396876885747     -0.00027878410775
  C   2.79841752960045      0.09466696706045     -0.00010677954885
  C   3.54528583561594     -1.08590145295811      0.00007892186854
  N   4.23229153579169     -2.02427659175757      0.00035495567690
  C   1.44536847286243      0.28921513838780     -0.00018179587618
  C   0.29687950138323     -0.57224333872094     -0.00009852010876
  C   0.43941668533032     -1.97794640173319      0.00013147984897
  N   0.57854408266760     -3.12978878596561      0.00049859920928
  C   -0.91859162196285      0.06223775853125     -0.00026033321464
  H   4.45928618482860      1.65570528165054     -0.00027168102594
  H   -2.62144877532252      2.94403003227088     -0.00073700364092
  N   -4.43675789825733      0.75610536205884     -0.00067275276917
  H   -4.96305043107808     -0.10113982360329     -0.00005182452867
  H   -4.94691924049688      1.61873122959560      0.00013246090012
