26
Coordinates from ORCA-job ./opt_b97-3c_parallel
  N   3.79978271143623      2.50483327303442      0.00735574212788
  C   3.18037161647306      1.51844136646559      0.00583770517118
  C   2.57111831846438      0.26325741160395      0.00434568315631
  C   3.30515435459141     -0.93194223851476      0.00556753990750
  C   2.40217745617444     -2.07439943635048      0.00348928464270
  C   1.12839127545978     -1.59639727316414      0.00101391482529
  N   -0.01841274946919     -2.33303543214485     -0.00144964961634
  C   -1.12797661237333     -1.64485743872052     -0.00355792242162
  C   -2.46074552342572     -2.13991125938635     -0.00633296242780
  C   -3.30365511525371     -1.06235411050015     -0.00783176901452
  C   -2.49950299688234      0.20791705038074     -0.00597950698272
  C   -3.12113020330286      1.45690076135816     -0.00692479789957
  N   -3.76654265599336      2.42623812356521     -0.00789893317262
  C   -1.18379413005552     -0.14363249358953     -0.00338327429897
  C   0.02474321128187      0.61741580885320     -0.00076414713012
  C   -0.00809108073226      2.03017570513587     -0.00051478686324
  N   -0.05828374993139      3.18955552803344     -0.00026715609268
  C   1.19411896888778     -0.10417809770113      0.00146333402955
  N   -4.63819692405462     -1.00074664161957     -0.01067797611890
  H   -5.11257363575101     -0.11426051226616     -0.01082697989166
  H   -5.19967404356511     -1.83207589113137     -0.01139956906891
  H   -2.73102935298819     -3.18154102755942     -0.00709725717485
  H   2.69684652640730     -3.11109684033866      0.00387630956023
  N   4.63168488938229     -1.03008421764595      0.00825912722881
  H   5.20278995958615     -0.20067421144476      0.00955324164001
  H   5.09372309813391     -1.92016027785284      0.00889824238508
