22
Coordinates from ORCA-job ./opt_b97-3c_parallel
  N   3.82854105709211      2.51497361517706      0.00580714373948
  C   3.10329614363698      1.60243341186934      0.00511034012194
  C   2.27067138579908      0.48619431442213      0.00437414979428
  C   2.68445517797180     -0.85019644834018      0.00721615669377
  N   1.62815379456090     -1.76908746035178      0.00556407132249
  C   0.53761429180953     -1.04396720762986      0.00167405016026
  N   -0.71507075906406     -1.58463923319611     -0.00100581404927
  C   -1.67344799241853     -0.70673647696001     -0.00474771210819
  N   -3.00855348827615     -1.01607754778240     -0.00796739541817
  C   -3.62072364014570      0.15254302942405     -0.01120345534303
  C   -2.71516618247406      1.32175171354002     -0.01029224536512
  C   -1.47038147727372      0.79759037075379     -0.00619040693224
  C   -0.15879810666431      1.33589089027650     -0.00333403576223
  C   0.84651675830182      0.42434446538001      0.00059065262007
  H   0.01894495046723      2.40322931969936     -0.00425005269338
  H   -3.01332579878508      2.35873063858255     -0.01249938192264
  N   -4.94652122846680      0.26063031096253     -0.01500761253523
  H   -5.40566653826895      1.15190130362914     -0.01729921586733
  H   -5.50631242378602     -0.57516095160748     -0.01533324398774
  N   3.92244544490112     -1.33123030591542      0.01113809881469
  H   4.05919744210504     -2.32605463424681      0.01288868444913
  H   4.72021338987785     -0.72093422828645      0.01256965666847
