24
Coordinates from ORCA-job ./opt_b97-3c_parallel
  N   4.45676706679574      2.16648962469419      0.00138622163990
  C   3.62877469715668      1.34707625471485      0.00109450499446
  C   2.70335492632721      0.30595704200980      0.00096243259308
  C   3.05502694564519     -1.14270480272881      0.00084671787023
  N   2.00530137853514     -1.92692972133234      0.00079491019167
  C   0.91297630192017     -1.08270685649967      0.00085555201968
  C   1.33240862700413      0.34105676614981      0.00095783828219
  C   0.40508002050125      1.41342187113630      0.00103873440378
  C   -0.91305461084135      1.08277934422194      0.00101874296757
  N   -2.00537986704214      1.92700172227224      0.00107817805840
  C   -3.05510472579408      1.14277607696356      0.00101603112605
  C   -2.70343250593787     -0.30588432506195      0.00090506024657
  C   -3.62885237413888     -1.34700089938200      0.00081129415680
  N   -4.45684780517488     -2.16641087163605      0.00057007400637
  C   -1.33248678956147     -0.34098364040489      0.00091791058563
  C   -0.40515863932551     -1.41334830863488      0.00084273223407
  H   -0.73278354643170     -2.44299230276752      0.00077122805367
  N   -4.31911382976579      1.56795258523272      0.00101651222515
  H   -5.08745260498099      0.92234811536927      0.00106260160037
  H   -4.50967023323874      2.55421739888620      0.00116549624145
  H   0.73270445310906      2.44306615990944      0.00111165854191
  N   4.31903586132810     -1.56788233312142      0.00071851152635
  H   5.08737674253375     -0.92227782935690      0.00121720426583
  H   4.50959131227703     -2.55414913103390      0.00096752476885
