23
Coordinates from ORCA-job ./opt_b97-3c_parallel
  N   3.55120844185525      2.57085549856225      0.00342365383695
  C   2.85617667601282      1.63649960762065      0.00248644304622
  C   2.12658504485589      0.44949383846284      0.00135321280751
  C   2.73024632263114     -0.90943768393034     -0.00136276977565
  N   1.84325940466543     -1.87407270833830     -0.00208130798469
  C   0.61233873391301     -1.23987002715705      0.00013164436407
  C   0.77110033350470      0.23331234426943      0.00180662735832
  N   -0.23452447284890      1.15316187149348      0.00290375214282
  C   -1.43484017102996      0.63313871287030      0.00428706498814
  C   -2.68528341037579      1.31472843740885      0.00808575589108
  C   -3.66371125500049      0.35439655481919      0.01455707460798
  C   -3.05509539035175     -1.00076324761071      0.01039848341001
  C   -1.71292731007437     -0.85306281618322      0.00598855122606
  C   -0.63181119006964     -1.77721739995145      0.00244511212007
  H   -0.79527184883548     -2.84668112252692      0.00267060002900
  H   -3.61891667618237     -1.92202435762245      0.00441059852992
  N   -5.00029326306236      0.50766300562975     -0.00896835101969
  H   -5.60307008638968     -0.27681581520799      0.15570770006552
  H   -5.40859861811139      1.41847881679118      0.09830662329188
  H   -2.81053557109765      2.38371826719248      0.00892382582238
  N   4.05428451484996     -1.09721258735636     -0.00154691398961
  H   4.42104226237909     -2.03164393943247     -0.00823473673250
  H   4.68955269446251     -0.32090073720313     -0.00701710873578
