22
Coordinates from ORCA-job ./opt_b97-3c_parallel
  N   2.93120739357487      2.97375443508369     -0.00019446531845
  C   2.47690381282767      1.90226901612206      0.00017969572053
  C   2.05014160107864      0.57575430237149      0.00029192957328
  C   2.95220384139945     -0.60611837845704      0.00058097727642
  N   2.30003345209609     -1.74234739957068      0.00057390678305
  C   0.95584103068219     -1.40488717811336      0.00030638041238
  C   0.78243927009348      0.04320369206999      0.00013362365276
  N   -0.42180646763761      0.71060360178135     -0.00014969960065
  C   -1.44382305681220     -0.07776983346851     -0.00026433118608
  C   -2.88100384532117      0.31209426880600     -0.00055435957605
  C   -3.36356715264288      1.62341249724381     -0.00072469414483
  N   -3.76085301674732      2.71603754058225     -0.00061956207995
  C   -3.59906979897604     -0.84365354211934     -0.00059650432617
  C   -2.69525748057348     -1.98460144094171     -0.00032298986751
  C   -1.39929018628061     -1.54731475629206     -0.00012109451905
  C   -0.14281005746228     -2.20885076662109      0.00017570821586
  H   -0.06517045126743     -3.28732809711378      0.00029251499875
  H   -3.02159058032365     -3.01345242840856     -0.00028788710658
  H   -4.67452817927925     -0.91148249646318     -0.00079354434970
  N   4.28653577958569     -0.48728307668016      0.00093014777594
  H   4.73200088585808      0.41111411988349      0.00032728765683
  H   4.85580176182772     -1.31396450829464      0.00069030500922
