24
Coordinates from ORCA-job ./opt_b97-3c_parallel
  N   3.67689118975576      2.79725718971137     -0.00529316591004
  C   3.09890623303105      1.78597733383418     -0.00293869593232
  C   2.48563479375220      0.53475948857358     -0.00013189414180
  C   3.21579746413464     -0.76787318404472      0.00041755479860
  N   2.42543414727530     -1.81325229767200      0.00318894680892
  C   1.14508240308126     -1.30744908292862      0.00465405855123
  C   1.16268634195239      0.19510255516836      0.00256834552950
  C   -0.04156819303744      0.93252377321093      0.00358566881046
  C   -1.18114365451841      0.19122282132420      0.00650347993887
  C   -2.57598094690113      0.54181873374652      0.00836350750398
  C   -3.14611359002674      1.81263792257184      0.00753173388058
  N   -3.66521884930017      2.85628088670429      0.00724321908176
  C   -3.29193802846159     -0.65350401586600      0.01112663033032
  C   -2.36564939353932     -1.78556140434877      0.01113269579347
  C   -1.09907012656752     -1.29366663831517      0.00837489407289
  N   0.06334484747590     -2.02089505866554      0.00743402811357
  H   -2.64840001642423     -2.82614569940001      0.01301283345088
  N   -4.61955126832871     -0.79067539675571      0.01352824497654
  H   -5.05337658251797     -1.69429247422734      0.01515004962945
  H   -5.21722120839643      0.01819139050393      0.01324539947708
  H   -0.04539081463391      2.01445604823772      0.00211794162995
  N   4.54465825112233     -0.83021908924445     -0.00174679804580
  H   4.99782308861084     -1.72717801821493     -0.00130850957475
  H   5.10698092206187      0.00161154149630     -0.00387154447331
