23
Coordinates from ORCA-job ./opt_b97-3c_parallel
  N   -3.14462873441741     -3.34710834905375      0.00099113635250
  C   -2.66177165262200     -2.28836943171566      0.00095388541013
  C   -2.16623647010789     -0.98438194218817      0.00093070237094
  C   -3.00402854839059      0.25429716228401      0.00122646861505
  N   -2.27932930667720      1.34374895692123      0.00116167473197
  C   -0.96799219426308      0.92487521370821      0.00083375702097
  C   -0.87296140724852     -0.53687687406909      0.00068072631235
  C   0.37690437593063     -1.23819769220923      0.00034295965789
  C   1.48798685411872     -0.47462533854920      0.00018167770423
  C   2.92266121011227     -0.76834932870507     -0.00015284191193
  C   3.49334769746584     -2.04467405812973     -0.00040758388062
  N   3.93208384463141     -3.12131795756629     -0.00061401930226
  C   3.53840402190650      0.45056351657370     -0.00015572228841
  N   2.62736814510643      1.51934839945984      0.00014711455100
  C   1.42976574427775      0.98748034180595      0.00034175240576
  C   0.16932623011824      1.69314080630810      0.00068171445594
  C   0.13096255945448      3.10274360061014      0.00086183723590
  N   0.10271674088611      4.26245129013619      0.00110102955209
  H   4.59665397579462      0.65133545655264     -0.00035776585595
  H   0.40553981664900     -2.32019363080907      0.00023234458589
  N   -4.33729663496290      0.21836158922236      0.00147234830765
  H   -4.85390744469822      1.08046224126755      0.00178686948082
  H   -4.84160688626419     -0.64916111165466      0.00170507258810
