25
Coordinates from ORCA-job ./opt_b97-3c_parallel
  N   -4.85382279078310      0.00085170478164      0.00008044288946
  C   -3.68681907184576      0.00086731196886     -0.00010398103599
  C   -2.29625429727559      0.00064997059765     -0.00001472949393
  C   -1.45675469997881     -1.14636056033556      0.00016643657568
  N   -1.90460597952278     -2.40593349268521     -0.00027814953942
  H   -2.88916140059980     -2.60268189762947      0.00108343184211
  H   -1.27234623012163     -3.18305207577715      0.00161190643212
  C   -0.09528726116686     -0.72012050699571      0.00031152885546
  C   -0.09497039822095      0.72044240045670      0.00031969026607
  C   -1.45625551823201      1.14728616196421      0.00008160109987
  N   -1.90352209289708      2.40706968778648      0.00011784432652
  H   -1.27089217669158      3.18388966776570     -0.00007300221103
  H   -2.88798171782861      2.60429378345029     -0.00024683443417
  C   1.09255995907330      1.43411245516856      0.00056057822875
  C   2.29080189563334      0.73066012079359      0.00079614663153
  C   3.63769153086526      1.14412797690841      0.00103325526294
  C   4.44483713915481     -0.00085482778474      0.00119474483440
  C   3.63718552588453     -1.14547714991264      0.00109187844531
  C   2.29047785005003     -0.73141076690737      0.00080587359800
  C   1.09192377825191     -1.43432392047918      0.00055933947864
  H   1.10060089882308     -2.51965571667580      0.00052214262619
  H   3.98423994133041     -2.16772701807798      0.00117655115725
  H   5.52443046889853     -0.00109494935724      0.00138795991221
  H   3.98520064138995      2.16622307175515      0.00108047010566
  H   1.10173034570947      2.51944039902079      0.00056807814636
