26
Coordinates from ORCA-job ./opt_b97-3c_parallel
  N   5.90431279519625      0.48814623119439      0.00698563446279
  C   4.74029718691499      0.48049044565596     -0.00962455713595
  C   3.34500141478468      0.37956873095022     -0.02326419707853
  C   2.65074371232770     -0.87505240041026     -0.01562370792943
  N   3.25697364324870     -2.07653460519480     -0.04924516416712
  H   2.73604674008321     -2.90981464595973      0.15107105262734
  H   4.25069218900668     -2.12729969307896      0.09578834882891
  C   1.25842549260191     -0.59989125962673     -0.01904852642696
  C   1.11235530310091      0.84570356140461     -0.02277157856973
  C   2.40004294722952      1.41249464317567     -0.02709592418855
  H   2.63679993642274      2.46427146809794     -0.02688643748278
  C   -0.14674546193946      1.42904360743600     -0.02267952569482
  C   -1.25842030826024      0.60014656624844     -0.01913671158954
  C   -2.65073831374149      0.87530532059418     -0.01579577672065
  C   -3.34499337309812     -0.37931331305465     -0.02344816891725
  C   -4.74028912290983     -0.48025890633705     -0.00988492604194
  N   -5.90430476514884     -0.48800283241465      0.00665733212684
  C   -2.40003482323260     -1.41224106114002     -0.02719745177924
  C   -1.11234897830575     -0.84545060431770     -0.02281707514013
  C   0.14675225219714     -1.42878840750069     -0.02263735273270
  H   0.24014240817298     -2.50926619426417     -0.03007833562963
  H   -2.63679174730659     -2.46401608678062     -0.02697503880505
  N   -3.25696252979402      2.07679343396969     -0.04948879448603
  H   -4.25068392245890      2.12755772503218      0.09553050837953
  H   -2.73604014091674      2.91006035622918      0.15089881942463
  H   -0.24013617207485      2.50952234539158     -0.03015435343402
