29
Coordinates from ORCA-job ./opt_b97-3c_parallel
  N   4.99709135586258     -0.00136559490309      0.00128787967056
  C   3.83023041818654     -0.00104926089444      0.00120712650270
  C   2.43857238977821     -0.00067657178585      0.00113141759391
  C   1.59994432764714     -1.14483667216633      0.09189565730050
  N   2.04743369184371     -2.43067481010902      0.18795960106237
  H   3.02817698540475     -2.53364537443771      0.39679776002644
  H   1.46501656094935     -3.05677468403380      0.72166076449606
  C   0.25356974896939     -0.72113184044529      0.02614011572715
  C   0.25395388524173      0.72093714317139     -0.02412676492311
  C   1.60056177746893      1.14392876186831     -0.08972904509645
  N   2.04875110614772      2.42952762540494     -0.18574339872951
  H   1.46673934508359      3.05593568308228     -0.71952473411195
  H   3.02957509401552      2.53196785389903     -0.39446325790325
  C   -0.93855381465427      1.45076400284300      0.03112310816994
  N   -0.92255604568546      2.83339335538287      0.06628199021294
  H   -0.19159850646322      3.22618476984416      0.63990417831844
  H   -1.81359374638894      3.24692256076728      0.28616331249565
  C   -2.14157362268328      0.72413028477714      0.02141345062024
  C   -3.48662880758421      1.14131384447223      0.03331743318860
  C   -4.29825050747533      0.00110738333836      0.00076215075416
  C   -3.48722531587432     -1.13952608354773     -0.03170718017217
  C   -2.14195284284855     -0.72304903751006     -0.01965481096379
  C   -0.93931920871366     -1.45032305540614     -0.02923469814996
  N   -0.92405505821197     -2.83296177629675     -0.06438795207519
  H   -1.81529339510594     -3.24601478804716     -0.28435108625640
  H   -0.19325581095747     -3.22614516712414     -0.63794344287812
  H   -3.85065846600175     -2.15682435836719     -0.03539016234620
  H   -5.37737891118888      0.00139203293867      0.00070400974647
  H   -3.84952568766195      2.15880375098514      0.03695654721999
