29
Coordinates from ORCA-job ./opt_b97-3c_parallel
  N   5.35281633987834     -0.03272796766949      0.02591295220734
  C   4.19729960366308      0.11702007704963      0.03575874528396
  C   2.80304441733438      0.21573139289154      0.03713354247452
  C   2.01340907939890      1.38616113694564      0.05700082535704
  C   0.66881914385167      1.01493182534593     -0.01155343461928
  C   0.60968713018006     -0.42732181345308     -0.04632009959088
  C   1.93310390528581     -0.90675795866775     -0.03823310067366
  N   2.33069934104574     -2.23341389512805     -0.07334949588020
  H   3.33357834843403     -2.34476265737602     -0.11819605531619
  H   1.88916394990763     -2.77533996309843     -0.80217039150290
  C   -0.61708295209625     -1.11199114910649      0.02333146909041
  N   -0.66320708689448     -2.48057905136842      0.14705552218398
  H   -1.50473384817892     -2.83048259631886      0.58112353236303
  H   0.16993589509089     -2.88910476965847      0.54575352050883
  C   -1.78341086830897     -0.33771836397217     -0.03886209760307
  C   -3.14914473066137     -0.70926297397865     -0.03758336362960
  C   -3.92752771950619      0.46485268589284      0.03163241358704
  C   -3.07048325977283      1.56185316178262      0.04878271609794
  C   -1.73565101846125      1.10431968223454     -0.01074435142235
  C   -0.51466064307480      1.79206881303750      0.00772921843746
  N   -0.45580179210786      3.15127575075956      0.10208981015525
  H   0.40237185682228      3.59710357448130     -0.16735050297830
  H   -1.27993384027469      3.66882140629113     -0.14412028847819
  H   -3.39506276375034      2.59073621700024      0.10016940944762
  H   -5.00632917832862      0.49932973409800      0.04290681623097
  N   -3.62639906141856     -2.01331663666009     -0.07834344767806
  H   -4.62737064570576     -2.06880355906785     -0.18389352654933
  H   -3.17548324493753     -2.59193876327100     -0.77277461561156
  H   2.41950111088631      2.38332271798324      0.12078764690812
