26
Coordinates from ORCA-job ./opt_b97-3c_parallel
  N   -4.71975816699617     -1.92459376274601      0.00052284143186
  C   -3.83394677299509     -1.17182456444315      0.00022607166523
  C   -2.82965951193277     -0.19620081784831      0.00002131253002
  C   -3.12684956294605      1.22953464493839      0.00066931159393
  C   -1.95624533277509      1.92413880493093      0.00039683499741
  C   -1.82887438089973      3.31945461893054      0.00103769826444
  N   -1.74311312583270      4.47799584371835      0.00179118624443
  C   -0.85699809543291      0.94346145912243     -0.00046479697500
  C   -1.45211964607292     -0.37346819432096     -0.00066888839074
  C   -0.65065694549417     -1.56012783123893     -0.00138108765743
  C   -1.22897493780210     -2.84774056497328     -0.00122244297483
  N   -1.70117954463157     -3.90737683865815     -0.00063001061353
  C   0.71805591188804     -1.40201920868200     -0.00203168780148
  N   1.67754790941031     -2.38213066605734     -0.00264557724723
  C   2.83149255470769     -1.75500176721466     -0.00259642507174
  C   2.66994334157058     -0.27652852428620     -0.00193766321783
  C   3.73895117589762      0.61782386543042     -0.00133916774318
  N   4.70818060969268      1.26221206182987     -0.00056172774633
  C   1.30804711652017     -0.07472973835943     -0.00165118378568
  C   0.50122660650206      1.11430761780205     -0.00098589079607
  C   1.12526011306086      2.38384132093819     -0.00091192500425
  N   1.68394904250841      3.40030970190476     -0.00102093842714
  N   4.02445980259709     -2.35120146516025     -0.00308071128169
  H   4.87720001909274     -1.82179194015638     -0.00273807625344
  H   4.07504016335429     -3.35473240660935     -0.00330888780080
  H   -4.11962752459133      1.64482512800845      0.00130996676109
