26
Coordinates from ORCA-job ./opt_b97-3c_parallel
  N   -4.94719892970096      0.00451756582255      0.09766989685663
  C   -3.78382437338829     -0.04223295743129      0.03125692474426
  C   -2.39442930881999     -0.09723113947037     -0.04090221961386
  C   -1.60703831902925     -1.27402020092660     -0.08408678326045
  N   -2.10024788798821     -2.52030733540191     -0.15064032765976
  H   -1.49777507639912     -3.30926391636383     -0.00938185676073
  H   -3.08366377068518     -2.67418106990218     -0.01324649202499
  C   -0.22822507982924     -0.89769535049215     -0.06755952588891
  C   -0.17772509785590      0.54714823185194     -0.04174885650606
  C   -1.51095920112988      1.01795580182641      0.01813192971212
  N   -1.91432024761179      2.30732315049502      0.11555186337584
  H   -1.27920506126480      2.94801666812246      0.56370581993387
  H   -2.88471261324013      2.46372302710124      0.33671044745801
  C   1.04170499208874      1.23168830572630     -0.05365916411838
  N   1.08218795187453      2.61508890038452     -0.10396125969321
  H   2.00626837529939      2.99059869163740     -0.24095523675609
  H   0.43276935789165      3.02657724545896     -0.75678728161414
  C   2.21104926693277      0.45604187018607      0.02537201914046
  C   3.58175765703165      0.75196760513815      0.04326018519035
  N   4.33767601359180     -0.37250451662693      0.07416081940361
  C   3.48449804666274     -1.41505158524916      0.06346916141940
  C   2.14263176825176     -0.99066392008251      0.03588028749455
  C   0.92182328828548     -1.65835566046682     -0.02654321875390
  H   0.89159238919200     -2.74237370080719     -0.03917640536819
  H   3.85128143254190     -2.43127516233350      0.07116946857042
  H   4.06121810479833      1.72103610520342      0.05625569061917
