27
Coordinates from ORCA-job ./opt_b97-3c_parallel
  N   -5.49028418352216     -0.43303374261483      0.00088704983058
  C   -4.32557095459153     -0.45090877656201     -0.02229817685384
  C   -2.92827113117586     -0.39285173680343     -0.03724489271364
  C   -2.19514674748490      0.82950674743958      0.01535751475080
  N   -2.75808329034461      2.07689295099429     -0.00148781111000
  H   -3.73934147365450      2.11432582926534      0.22388295590246
  H   -2.23029915699001      2.81383637618214      0.43339353923377
  C   -0.82020008353083      0.50459549802706      0.00693399091154
  C   -0.72051988063654     -0.94839137525187     -0.03697407416478
  C   -2.01917594013730     -1.46987812515190     -0.06834892576864
  H   -2.29637734769434     -2.51115456201998     -0.09904916628495
  C   0.53040396663745     -1.56607366383665     -0.04225080241153
  C   1.65854464152161     -0.77354551597930     -0.01164470700082
  C   3.05531425676209     -1.09080964938436     -0.00274378502960
  C   3.79398073308821      0.10211420693811      0.00945184756754
  C   2.89547124299648      1.17909575949012      0.01199787761843
  C   1.55762873733836      0.66919781771893      0.01188840090169
  C   0.32735607427531      1.29345035025380      0.02331224684513
  H   0.25134694613300      2.37675977644987      0.04306862462918
  N   3.23430343933244      2.49527705775101      0.07618800664497
  H   2.54254830821655      3.16440742385280     -0.21187861854766
  H   4.17165236847350      2.74549026065194     -0.18552244093692
  H   4.87041630759815      0.17835629135498      0.01218570474395
  N   3.57214353303060     -2.34538951243530     -0.06808343746770
  H   2.97314141252754     -3.11043865028107      0.18630061048640
  H   4.53377821475546     -2.47219347185972      0.19314085924281
  H   0.59433758517576     -2.64856767198956     -0.07898905951919
