24
Coordinates from ORCA-job ./opt_b97-3c_parallel
  N   -5.06484627720641     -0.37989694701896     -0.00136629990750
  C   -3.90020191543832     -0.36702778534739     -0.00079598465288
  C   -2.50695106938624     -0.26250654856340     -0.00049344122631
  C   -1.80838002063831      0.98202612837373     -0.00051308008242
  N   -2.40063980618552      2.18409210901477     -0.00039952245331
  H   -3.40221448218490      2.25855041244036     -0.00174639147024
  H   -1.86969542356121      3.03344637036528     -0.00194009779676
  C   -0.41008079081062      0.69843995021526     -0.00027299618357
  C   -0.26967823098936     -0.74284491840573     -0.00013433711595
  C   -1.55401732668045     -1.29644582851225     -0.00027738110974
  H   -1.81791995502462     -2.34294270162501     -0.00024946139131
  C   1.00772832321085     -1.34538527350522      0.00002955733351
  N   1.16367209215435     -2.68439918043367      0.00033096795075
  H   2.07604524935210     -3.09673116641363     -0.00038112721200
  H   0.37822801935396     -3.30523573542231     -0.00059038008877
  C   2.12281872836514     -0.47586536590297      0.00014744728885
  C   3.50891067162252     -0.67137756878165      0.00029797032082
  N   4.18951810345205      0.50567803159727      0.00031261494130
  C   3.26338649761814      1.47814724778304      0.00012129983533
  C   1.95118929528112      0.95406838607698      0.00000022178903
  C   0.68966861400596      1.53625251349691     -0.00019985006481
  H   0.58637896520326      2.61605313690366     -0.00026343862215
  H   3.55192597347944      2.51953028169906      0.00007739058377
  H   4.05744566740708     -1.60335237043413      0.00046844693438
