27
Coordinates from ORCA-job ./opt_b97-3c_parallel
  N   5.11009025274818      0.39857117911274     -0.00705222035511
  C   3.95061094239978      0.27156325653942     -0.03876570730030
  C   2.56728069365840      0.12026261841718     -0.06645059545878
  C   1.61536492100092      1.17078194973092     -0.04128619980432
  N   1.92738769206859      2.48705675961420     -0.07479719082451
  H   1.23573884135667      3.14913634966208      0.22629510459869
  H   2.87829893973190      2.74921277759167      0.12222406436155
  C   0.31395078016589      0.59698271568693     -0.03735509011388
  C   0.47172334832717     -0.84304187312555     -0.04503610866019
  C   1.86103875223101     -1.11763842360138     -0.05881459548288
  N   2.45622621505645     -2.33020607529986     -0.11188394150079
  H   1.92246806398990     -3.13966436929111      0.14706234595144
  H   3.44128601222967     -2.38542489238116      0.08232375765243
  C   -0.63888737741653     -1.67893298693714     -0.02589527988528
  C   -1.89940456950033     -1.10903128105509     -0.00223994425395
  C   -3.19639617240525     -1.66848333804638      0.02276345226018
  C   -4.12940142975419     -0.63559602140211      0.02790502077258
  C   -3.45135302419796      0.60367623979423      0.00233645652024
  C   -2.05652391342834      0.34187629546880     -0.00602955763896
  C   -0.94642438222810      1.17248060463255     -0.01958072248742
  H   -1.06111507029621      2.25261104920018     -0.01459727019702
  N   -4.04422972863079      1.84471216743306      0.05599839858407
  H   -3.51261793366371      2.60032321234488     -0.34295685971928
  H   -5.00696349925259      1.87320927072387     -0.23564910441222
  H   -5.20287523400839     -0.75193044708169      0.04684042200087
  H   -3.42631812990174     -2.72309980346918      0.02657488183021
  H   -0.53352961358037     -2.75875301516204     -0.03498870493738
