25
Coordinates from ORCA-job ./opt_b97-3c_parallel
  N   5.04835737282950      0.39453951602814      0.02661950396640
  C   3.88355772362472      0.37063118893787      0.03752931659131
  C   2.49107910774570      0.26271073887597      0.04304346033593
  C   1.78924812464544     -0.98184933708056      0.02129042759216
  N   2.38382508468846     -2.19019507764334      0.05060645069311
  H   1.85714770398455     -3.01545387064869     -0.16838454223573
  H   3.37737393274250     -2.24835266818271     -0.09380195248517
  C   0.39544162908124     -0.69861611337317      0.01947740551412
  C   0.25294196670634      0.73773388627712      0.03080255741836
  C   1.53747328633154      1.29544935729833      0.04701215684936
  H   1.79767875171864      2.34272148499139      0.06560958549797
  C   -1.02642898565269      1.33614261769392      0.02233842247040
  N   -1.17755393287915      2.68551408700558      0.06090227528886
  H   -2.07777977782760      3.07319893313951     -0.15209374764365
  H   -0.39588604252230      3.27127607867148     -0.16690082485413
  C   -2.14330322025245      0.47480308816910      0.02713412352380
  C   -3.52561687626734      0.72483817045614      0.02042003614654
  C   -4.20364079468040     -0.50963294494421      0.00951089194180
  C   -3.26756439395457     -1.53897468946423      0.00780094678171
  C   -1.97282255485393     -0.96069783487681      0.01899446377193
  C   -0.71125269129429     -1.53514451230343      0.01449274408657
  H   -0.60681487034150     -2.61505804764597      0.01531651191724
  H   -3.48125310258845     -2.59683791501903      0.00051119347979
  H   -5.27558295404837     -0.63026599247623      0.00594006803157
  H   -4.01007031243552      1.69065047531384      0.03799685011975
