26
Coordinates from ORCA-job ./opt_b97-3c_parallel
  N   1.74247060048682      4.47830275801823      0.00119046402839
  C   1.82831371967945      3.31976755032145      0.00096586604896
  C   1.95589717377228      1.92447165631010      0.00056354710643
  C   3.12661972638406      1.23006640181845      0.00073504243916
  C   2.82967261506738     -0.19571872987618      0.00011573687928
  C   3.83413128189538     -1.17116693279775      0.00006873128413
  N   4.72010444607348     -1.92374421260818      0.00014482975375
  C   1.45216407519975     -0.37321959761944     -0.00043873035805
  C   0.85681577412420      0.94360538497513     -0.00019843007818
  C   -0.50143715728753      1.11421338140866     -0.00069883715148
  C   -1.12567957841380      2.38364275697135     -0.00051419358571
  N   -1.68447618605371      3.40005013167552     -0.00032417750059
  C   -1.30804979478516     -0.07496693689935     -0.00149415690177
  C   -2.66991353240417     -0.27699952409269     -0.00219639656753
  C   -3.73907191725993      0.61716953336591     -0.00233431101186
  N   -4.70839376550225      1.26141902377144     -0.00223470029621
  C   -2.83120600205048     -1.75550043434236     -0.00281787493077
  N   -1.67715118703093     -2.38243301539268     -0.00249131381528
  C   -0.71783122137984     -1.40215147478266     -0.00170385689234
  C   0.65091370136953     -1.56001650898333     -0.00116815479890
  C   1.22944932552106     -2.84753431142470     -0.00137342148986
  N   1.70170550540950     -3.90714542222362     -0.00143264325261
  N   -4.02406977795252     -2.35190352132887     -0.00365551064914
  H   -4.07449588053487     -3.35543637046660     -0.00391108641284
  H   -4.87689478505337     -1.82264129089622     -0.00367360397252
  H   4.11932013682568      1.64553612679836      0.00122624152552
