28
Coordinates from ORCA-job ./opt_b97-3c_parallel
  N   -6.08840602467366     -0.37013310605242     -0.01333418129467
  C   -4.92469036366502     -0.40676125749893     -0.02383364698158
  C   -3.52557121772175     -0.36875787440678     -0.02677424847132
  C   -2.77813816978361      0.84579264536220     -0.00085651922605
  N   -3.32399334675566      2.09477030307619     -0.05189416987389
  H   -4.30801887162843      2.15953145220606      0.15254451219109
  H   -2.78581295621034      2.84897641165701      0.33694979607486
  C   -1.40629638383468      0.50191621940205      0.00800947828447
  C   -1.32757449859365     -0.95706457147343      0.00161089158827
  C   -2.63424723343395     -1.45868197531472     -0.02350310124764
  H   -2.92727492966892     -2.49583415069437     -0.02752471459829
  C   -0.09088522219873     -1.59321313298393      0.02133464847149
  C   1.05280705223719     -0.81666267511340      0.03807637921307
  C   2.43224804704736     -1.16595465594080      0.04851694414669
  C   3.19876990252568      0.03022384385171      0.05216675868753
  C   4.58921415632087      0.10897170198350      0.03050254553435
  N   5.75308577781112      0.17569365604346      0.00540063809376
  C   2.30393053596335      1.13262777024889      0.03036162736753
  C   0.97280290657661      0.63165325910266      0.03013179853525
  C   -0.25247946743784      1.27354452533222      0.01654774440361
  H   -0.31171689558190      2.35751470367167      0.01037156869224
  N   2.68919057854676      2.42345472954858      0.05750513482385
  H   2.03140761838877      3.13896592299601     -0.19059164064964
  H   3.65597971338990      2.64339865839885     -0.10916217670100
  N   2.95505281048582     -2.40450085937733      0.09271115500909
  H   2.37437241514444     -3.19760274184640     -0.10646473763476
  H   3.94121275412594     -2.52786289300949     -0.05679190267268
  H   -0.04290559847566     -2.67657566456903      0.02646637073444
