22
Coordinates from ORCA-job ./opt_b97-3c_parallel
  N   -2.93434708993196     -3.54827128745988      0.00089851376584
  C   -2.54524973860357     -2.45257991549268      0.00026037724526
  C   -2.07902758597816     -1.13184772892173      0.00007949779248
  C   -2.94402253136515      0.04841879028122      0.00043797958794
  C   -2.16649903372932      1.16167678952564      0.00027042018564
  C   -2.58199125762788      2.49887714813870      0.00050788467861
  N   -2.88088721601935      3.62211866743566      0.00051773852599
  C   -0.75495483539575      0.72716430292745     -0.00020337016802
  C   -0.75420028526894     -0.73338380053916     -0.00033843941769
  C   0.44630159609684     -1.49434095285950     -0.00078207428339
  C   1.61465058642776     -0.79712695918404     -0.00106728267033
  N   2.92597101786533     -1.21367327712906     -0.00150256899920
  C   3.59787823194521     -0.08560381647778     -0.00154331790139
  N   2.83422131807627      1.12670636207046     -0.00117065278751
  C   1.61067493918877      0.67504518265108     -0.00088992849187
  C   0.38799074986156      1.44042849391740     -0.00045661496707
  H   0.41426163286287      2.52184527579643     -0.00035097517076
  N   4.92706712919427      0.03353814032353     -0.00182845724478
  H   5.34518375408586      0.94455075677169     -0.00221041621952
  H   5.50710283488183     -0.78505266759285     -0.00242078773624
  H   0.41654506726689     -2.57466319462988     -0.00087550828210
  H   -4.02020838793336      0.01542646924731      0.00080486505811
