28
Coordinates from ORCA-job ./opt_b97-3c_parallel
  N   -2.23762353900174     -4.18085854950032     -0.00231553290605
  C   -2.03707603351380     -3.03449607866987     -0.00192549444745
  C   -1.87519959417212     -1.64759573993195     -0.00144840086983
  C   -3.00326740332043     -0.70380319056049     -0.00183540054448
  C   -2.50322936801884      0.59298587825271     -0.00112255135169
  C   -3.32295234501454      1.72368590379901     -0.00122220415327
  N   -4.08580578807590      2.60266878500992     -0.00112997137540
  C   -1.06822486207997      0.50419211910500     -0.00030920988503
  C   -0.70544535587649     -0.92133608764720     -0.00052000017613
  C   0.64124086636347     -1.36964916756003      0.00016874670334
  C   1.62185825018926     -0.43206217519230      0.00104021636774
  C   3.06661352969311     -0.53683101988269      0.00189473861604
  C   3.83553361553507     -1.69862810898246      0.00207008879552
  N   4.51213158607558     -2.64705134638084      0.00213487372469
  C   3.56879326096809      0.75585200044280      0.00259673144241
  C   2.44984784454564      1.70394837727883      0.00218542023424
  C   1.29150039147860      0.99605728988502      0.00126943166925
  C   -0.07837169473423      1.45082874293958      0.00056610208499
  C   -0.32147122733608      2.84133961383443      0.00081771124221
  N   -0.43336543418100      3.99703725699656      0.00095023375954
  H   2.54990092901574      2.77880781937291      0.00253375169537
  N   4.85113637024893      1.13760791505725      0.00333905327770
  H   5.11045084106912      2.10562269223888      0.00451925689228
  H   5.58889458400464      0.45485768609728      0.00400055954999
  H   0.85992383884800     -2.42897596975136     -0.00001804653856
  N   -4.27661400777880     -1.09429709688144     -0.00286370668609
  H   -4.52322207180560     -2.06792261419012     -0.00276955289988
  H   -5.01878194092571     -0.41577631867909     -0.00272270582143
