24
Coordinates from ORCA-job ./opt_b97-3c_parallel
  N   -1.67520954726428     -4.56658124784260     -0.00006330341479
  C   -1.78290525539776     -3.41018301282948      0.00002340960565
  C   -1.89999063864217     -2.01519516233062      0.00008702822790
  C   -3.03325834215741     -1.27492535532010      0.00007604343939
  C   -2.68260947592127      0.15502087906930      0.00013059446518
  C   -3.65295477744513      1.16364103497899      0.00009105217879
  N   -4.50526251738112      1.95439296458919      0.00000236271448
  C   -1.31056070697076      0.28772961325139      0.00018530050924
  C   -0.75573264045198     -1.06882890245915      0.00016474461505
  N   0.49881239726501     -1.37869204834239      0.00022012607808
  C   1.33401164382491     -0.29229949647525      0.00028649818497
  C   2.70781569872203     -0.27096411307003      0.00043147071970
  C   3.63208126804358     -1.31237720775197      0.00062617277976
  N   4.47861283429821     -2.11085563119576      0.00077877609541
  C   3.05402850270566      1.17837443752124      0.00047820877288
  N   1.99268812091039      1.95566507604074      0.00037453987469
  C   0.91621465028555      1.10925151389204      0.00027336417909
  C   -0.42813197251016      1.41064765186812      0.00026847047978
  C   -0.89759263929351      2.74220557615779      0.00043121459785
  N   -1.28735940990517      3.83463621231155      0.00078585605285
  N   4.31139158893729      1.61623354131017      0.00060051484909
  H   5.08962466629456      0.98184371690076      0.00070581601089
  H   4.48938834123510      2.60574909208662      0.00064637853689
  H   -4.04493278518160     -1.64274644216057      0.00002581234717
