25
Coordinates from ORCA-job ./opt_b97-3c_parallel
  N   2.58409364225225      3.80136547770284     -0.00037248302204
  C   2.46788442808532      2.64533507930150     -0.00028433294353
  C   2.34870966087436      1.24928693956732     -0.00014150573478
  C   3.38285390270918      0.36039399103118     -0.00011206940975
  C   2.84318309543457     -0.98962768679664      0.00003084658599
  C   3.61456101658070     -2.15741031464189      0.00011156074570
  N   4.25314013183470     -3.12919711210555      0.00042326645643
  C   1.45525810466336     -0.92804185371761      0.00007109391206
  C   1.09602856167871      0.47569753634796     -0.00001092591749
  C   -0.21644949381796      0.85973324379268      0.00000126420074
  C   -0.63149822199815      2.21195463432721     -0.00006385153713
  N   -1.01720736976090      3.30599426616695     -0.00011507848831
  C   -1.20238040158916     -0.19296526839029      0.00014664320637
  C   -2.57773110801199     -0.17547157594747      0.00026242765721
  C   -3.49135140023997      0.87775887307799      0.00048271591701
  N   -4.34688067645011      1.66692536083186      0.00057729441069
  C   -2.97608048759095     -1.61097051280756      0.00040245508721
  N   -1.94286701285326     -2.41360226389982      0.00036777434441
  C   -0.82582030778788     -1.59684889722373      0.00018368162178
  C   0.48763070360701     -1.96081991918474      0.00017430888692
  H   0.78481178264152     -2.99967940665632      0.00024283005255
  N   -4.25690662950533     -1.99792123685795     -0.00003599912896
  H   -4.47736169888860     -2.97739721211949      0.00190752276019
  H   -5.00667388247245     -1.33152892580084      0.00258501542559
  H   4.43152587520502      0.60279999140245     -0.00018289098885
