25
Coordinates from ORCA-job ./opt_b97-3c_parallel
  N   -2.45006518874569     -3.93849020298217     -0.01707239845185
  C   -2.35467024779159     -2.78004366286947     -0.01290340331856
  C   -2.23312587076269     -1.38330300174113     -0.00806692394679
  C   -3.34158685329612     -0.45940522180015     -0.01436847137803
  C   -2.83639348613117      0.81696314677548     -0.00754736511464
  C   -3.55997530793134      2.01680008243960     -0.01084329942493
  N   -4.11861862561773      3.03616871148743     -0.01364125259229
  C   -1.37963289158564      0.72961549658954      0.00366713746589
  C   -1.03690372220315     -0.66318753401415      0.00295362884068
  C   0.31892683948776     -1.09394829877750      0.01313516909660
  C   1.28341059491428     -0.13425305963152      0.02304983944812
  C   2.73722256531890     -0.20762934174015      0.02929506907334
  C   3.52266756588423     -1.35680090691162      0.01167093378003
  N   4.21122240725953     -2.29678074220476     -0.00760814231297
  C   3.23174003448223      1.09577178556928      0.03401499793342
  C   2.11261024684482      2.00067411554545      0.03266491135185
  C   0.93855211800046      1.27030743253917      0.02242230133634
  C   -0.41231316428788      1.69453548181836      0.01295300855782
  H   -0.66286476758507      2.74801849651482      0.01255290363406
  H   2.19434470571049      3.07781186700273      0.04470626642074
  N   4.53124100313444      1.48022930151402      0.10057643580581
  H   4.77215883397597      2.40671006986646     -0.20166182417752
  H   5.23516208528410      0.78339333374210     -0.07570359428307
  H   0.55868743360461     -2.14935141685382      0.01429610176389
  H   -4.38043189306373     -0.73963055927799     -0.02323880670792
