21
Coordinates from ORCA-job ./opt_b97-3c_parallel
  N   1.41905099401139      4.15561892235930      0.00022483238166
  C   1.54561569067943      3.00079191295644      0.00045491007881
  C   1.69227449204930      1.60917290833135      0.00038806132875
  C   2.86128703487552      0.90434009949503      0.00059002770865
  C   2.55092915460814     -0.51442494955068      0.00036226782227
  C   3.50799201410021     -1.53691337412054      0.00044699762310
  N   4.29650018346955     -2.39115284685255      0.00032973828830
  C   1.17076995327617     -0.68767637817675      0.00003113335533
  C   0.57985871997094      0.63607529053641      0.00003874193639
  N   -0.69536216623572      0.89347435535164     -0.00021836270979
  C   -1.47872450592472     -0.22253410909047     -0.00051324242290
  C   -2.86866664094426     -0.32220990226319     -0.00083764068823
  C   -3.81741689698811      0.69855408313615     -0.00097337762958
  N   -4.64140275213655      1.52014979935600     -0.00133649556024
  C   -3.14832856903772     -1.76076505235539     -0.00104257308586
  N   -2.06445013111220     -2.48573033261754     -0.00088106740357
  C   -0.99677361458615     -1.57858206628746     -0.00055138387770
  C   0.34289053420244     -1.83377181574093     -0.00027901876586
  H   0.74460377246014     -2.83798163804713     -0.00030634821801
  H   -4.13638663062178     -2.19566423249450     -0.00131000440858
  H   3.85728746828402      1.31150176197494      0.00086182404700
