22
Coordinates from ORCA-job ./opt_b97-3c_parallel
  N   -2.64615478628283     -3.66103178595126      0.00102308195114
  C   -2.30820499290442     -2.54902812120503      0.00081107511998
  C   -1.94861631151565     -1.19576359036114      0.00037541799226
  C   -2.90553728830876     -0.09434673962501     -0.00058875407909
  C   -2.22801491492610      1.08752865439705     -0.00079275301536
  C   -2.75502380496842      2.38467219990860     -0.00162847328384
  N   -3.13923847335036      3.48209415219535     -0.00220754334132
  C   -0.79155842678339      0.77787814404519      0.00004011014057
  C   -0.66469262339323     -0.67430813755022      0.00076325802033
  N   0.50987514911955     -1.36626481781040      0.00163298580495
  C   1.57533434570281     -0.62120337154452      0.00183783392249
  N   2.87278304686411     -1.08789143452289      0.00277457285789
  C   3.62292567668506     -0.01185499598554      0.00275506444314
  C   2.85029904595250      1.25458383757484      0.00177773762785
  C   1.55464112456597      0.86980047111147      0.00122306052946
  C   0.30701969494267      1.56441292795293      0.00027193034899
  H   0.25294248298005      2.64594239925701     -0.00021387136536
  H   3.25704563327295      2.25500215340156      0.00146987766660
  N   4.96017917726452     -0.04570780559985      0.00279887776790
  H   5.51296915581107      0.78974988146498      0.00625138926437
  H   5.42794262780310     -0.93543782201132      0.00539743471842
  H   -3.97496165763119     -0.21916374224176     -0.00105133269137
