25
Coordinates from ORCA-job ./opt_b97-3c_parallel
  N   -3.68815158566161     -3.57324897313848     -0.00030643601055
  C   -3.34561648917605     -2.46245310019165      0.00047699003429
  C   -2.87386802062174     -1.14423737915804      0.00030039659065
  C   -3.60998444595111      0.00524768379515      0.00011923226009
  C   -2.70046284563637      1.14033383909565     -0.00009273901269
  C   -3.10929091299294      2.47841536901504     -0.00019756917204
  N   -3.48558553662276      3.57816008730803      0.00018353781928
  C   -1.39018689994398      0.66752341964727      0.00000110491401
  C   -1.45112708505976     -0.77181129333949      0.00032864149949
  C   -0.30798919045287     -1.50843216470110      0.00033021821511
  C   0.89455288917369     -0.76167443636936      0.00008315381591
  C   2.22091789938577     -1.14038471208461      0.00016091096720
  C   2.74524687549508     -2.43533489331939      0.00037214360489
  N   3.22730585194131     -3.49423040509177     -0.00034734338569
  C   3.05641382724843      0.07167174003362     -0.00014245667620
  C   2.22498213867437      1.17941292526795     -0.00032986897729
  C   2.67796926305723      2.49910700756084     -0.00038152114254
  N   3.12998867711525      3.57109832674375      0.00006846176500
  C   0.85405453702497      0.70434777698253     -0.00017844119174
  N   -0.24407455537860      1.40531995578992     -0.00022813771883
  N   4.39217138367930      0.03034380236970     -0.00021787183072
  H   4.92834313608038      0.88028670316022     -0.00034287659726
  H   4.88990885167672     -0.84126965591111      0.00013007796309
  H   -0.30428407482084     -2.59104799341927      0.00044074027467
  H   -4.68336423863394      0.08184417395462      0.00012850689184
