24
Coordinates from ORCA-job ./opt_b97-3c_parallel
  N   -3.06880347684316     -3.38244239468636      0.00161437522379
  C   -2.44722581188472     -2.39917869290940      0.00148022035124
  C   -1.76210670110410     -1.18086086881587      0.00129353628223
  C   -2.43287843744805      0.12236102496407      0.00146327753385
  C   -1.46068216728090      1.11439659971812      0.00131020222316
  C   -1.76564886467418      2.47689935690016      0.00149736711865
  N   -2.11690091655812      3.58645481651924      0.00163393767165
  C   -0.16955693062739      0.46762889317019      0.00104381366398
  C   -0.39712370096660     -0.97326227025752      0.00105682254632
  C   0.66464035832226     -1.92169720635323      0.00087889309545
  C   1.92693049287587     -1.43292397229219      0.00068628863748
  N   3.13566489664565     -2.16174234155385      0.00048000070463
  C   4.07076488637773     -1.25740864476550      0.00035053360156
  C   3.54850611788693      0.11569419737144      0.00046497649252
  C   2.19091744844308     -0.00910353863820      0.00067523286557
  C   1.11418399921356      0.95208014002128      0.00087368191239
  C   1.42694843907240      2.32905087844577      0.00087285126673
  N   1.75469788592613      3.44278402815009      0.00088345648293
  H   4.12741352703395      1.02624141195214      0.00039481468566
  H   5.11755417062167     -1.52719241830824      0.00017892941688
  H   0.46201192429156     -2.98386247894276      0.00089412466612
  N   -3.76166537166090      0.26431917791378      0.00128823704941
  H   -4.17668970628285      1.17949045995519      0.00254532430794
  H   -4.37199894267981     -0.53232546685832      0.00308326120003
