25
Coordinates from ORCA-job ./opt_b97-3c_parallel
  N   4.06141670537837      2.14288660805525      0.02293415844993
  C   3.47049330718184      1.14163549924607      0.01684613154331
  C   2.83859004361876     -0.10880298040963      0.01066098496689
  C   3.57821263185771     -1.36476895994676      0.01651012665151
  C   2.68685695107163     -2.38723361014701      0.00899520738246
  C   1.34774805776930     -1.82593073853479     -0.00212107162460
  C   1.47468123306724     -0.39231622354156     -0.00090711005735
  C   0.31439404695140      0.45279813648749     -0.01177932301267
  C   0.44791233016518      1.86141554344062     -0.01449132259383
  N   0.55976457933111      3.01616664912586     -0.01676573000232
  C   -0.92230033416663     -0.15090996988908     -0.02160144129296
  C   -2.27147043583387      0.37162431917546     -0.02891887602949
  C   -2.71665463485890      1.69288934998726     -0.01004274559629
  N   -3.19811048752940      2.75317375440612      0.01029017898884
  C   -3.14609358545525     -0.71804497293455     -0.03302448703593
  C   -2.36823450030671     -1.92865657092076     -0.03022371939244
  C   -1.02923295809604     -1.59770586636909     -0.02084967236751
  C   0.12046115720547     -2.42308251710267     -0.01142794444635
  H   0.01489373170127     -3.50076735103833     -0.01119540959234
  H   -2.77981108324526     -2.92700812268927     -0.04175107011785
  N   -4.49629016961463     -0.66845882986315     -0.09276144288403
  H   -5.02813337441839     -1.47491238006656      0.17832259815755
  H   -4.94562167912212      0.21892705703861      0.06025026392402
  H   2.91561392660853     -3.44100026797033      0.01051367526475
  H   4.65304277203938     -1.42628462253918      0.02554829851671
