22
Coordinates from ORCA-job ./opt_b97-3c_parallel
  N   2.98666767833264      3.52429858150822      0.00061607678489
  C   2.57418657533326      2.43677465901993      0.00051427627299
  C   2.07438879151163      1.12956726376664      0.00039078887275
  C   2.90867999096327     -0.07605471185218      0.00107359488215
  C   2.11633011444838     -1.17820566192460      0.00065977346164
  C   2.51616105567207     -2.51987822028839      0.00085184702761
  N   2.83480375415046     -3.63714186401554      0.00062469161019
  C   0.71121800852762     -0.71045296148054     -0.00014997203471
  N   -0.35264692127079     -1.43855962674617     -0.00050314519137
  C   -1.52325003143450     -0.70253176895740     -0.00118341077132
  C   -2.80226049550710     -1.15486340840718     -0.00146504587889
  C   -3.62909480126370      0.07092826987453     -0.00234298414751
  N   -2.92360799659303      1.18051250557193     -0.00249233366702
  C   -1.60479075760679      0.76573655194879     -0.00157876298394
  C   -0.46000236437617      1.50431617961300     -0.00124891513804
  C   0.74384675383906      0.76441520691912     -0.00039824716346
  H   -0.46376482177382      2.58540346918690     -0.00142733394484
  N   -4.96946842210944      0.04803870295695     -0.00053477992421
  H   -5.47522153763492      0.91630912084127     -0.00784724501231
  H   -5.48490232462054     -0.81051400984157     -0.01183176242791
  H   -3.14152362860022     -2.17869666944146     -0.00087956552779
  H   3.98551915351264     -0.06372957605222      0.00171913290107
