23
Coordinates from ORCA-job ./opt_b97-3c_parallel
  N   -4.14064296955207     -2.96887504229320      0.00099252005425
  C   -3.53525641361606     -1.97737582051271      0.00100628705161
  C   -2.78444907951661     -0.79553186897575      0.00075957080557
  C   -3.24616316915873      0.48298196687000      0.00066104794944
  C   -2.11089954695562      1.41377196181079      0.00035693659655
  C   -2.24229136269052      2.80694030818931      0.00027006620973
  N   -2.38784614850590      3.96005751720067      0.00050698105667
  C   -0.93881901343641      0.68606982554746      0.00024343631936
  C   -1.30795997053839     -0.72757445379907      0.00052029725603
  N   -0.45596545932830     -1.70614140561399      0.00057103068262
  C   0.84259563409108     -1.27332885383275      0.00030764028978
  C   1.98190918085440     -2.01798355071467      0.00026313801518
  C   3.12325574443724     -1.10294703268025     -0.00001381870931
  C   2.66695352330964      0.21028362178070     -0.00025441756954
  C   3.49558007827013      1.33112263892951     -0.00030530537882
  N   4.25148122488790      2.21638348356967     -0.00043115625823
  C   1.21962715075163      0.15582293026866     -0.00003112538741
  N   0.35227940317747      1.12804020092638     -0.00005294435685
  N   4.39470155317498     -1.51860536311835     -0.00078144179608
  H   5.14876216609066     -0.85338204939302      0.00092213822354
  H   4.63046913626368     -2.49266273930960      0.00275781033724
  H   2.04516035918257     -3.09547793593010      0.00027782577621
  H   -4.27725978389289      0.79205851038006      0.00078082473271
