22
Coordinates from ORCA-job ./opt_b97-3c_parallel
  N   4.50030781800529      0.22791822672372      0.00025961153767
  C   3.40980492272464      0.63092518229783      0.00003859440958
  C   2.10492783569056      1.13632715526968      0.00004459821204
  C   1.75548082680650      2.47093226435628     -0.00004429822417
  C   0.33308085810598      2.57453436822583      0.00004393499899
  C   -0.21453330635963      1.30134805377751      0.00018336007251
  C   0.86806927995957      0.35385988433000      0.00017960072661
  C   0.62831132883753     -1.00034048290109      0.00029841555628
  C   1.65356503549305     -1.97786666171428      0.00028949129448
  N   2.43974336363606     -2.83049390152076      0.00023059435253
  C   -0.73595611584280     -1.42778261089153      0.00042719419344
  C   -1.33624847411610     -2.67001763826749      0.00057020382646
  C   -2.75705386805994     -2.41202077801915      0.00066132094731
  N   -3.04628974270160     -1.12746636319266      0.00058275337996
  C   -1.81860340970690     -0.47788963731404      0.00043922236509
  C   -1.57843692288756      0.87542780480646      0.00030008047692
  C   -2.61789324217198      1.83575644753785      0.00025252970093
  N   -3.42090470212166      2.67223442090489     -0.00011652635417
  H   -3.53602309033157     -3.15996236765063      0.00077816291224
  H   -0.85038501671461     -3.63311205306093      0.00060588045298
  H   -0.22549838308497      3.49771129360459      0.00001041868482
  H   2.44750154714014      3.29571487019793     -0.00014826672247
