25
Coordinates from ORCA-job ./opt_b97-3c_parallel
  N   -4.99590440326792     -0.30865963170926      0.00064466163292
  C   -3.92617595270533     -0.76522139253341      0.00056681004054
  C   -2.66206318981641     -1.36244305720359      0.00061392478396
  C   -2.43822869011857     -2.75299870050580      0.00080939932055
  C   -1.06565821976780     -2.98344610721754      0.00080496454626
  C   -0.39526407381074     -1.73378258235800      0.00060768207100
  C   -1.38279544348995     -0.70249817085640      0.00048423261132
  C   -1.01761684941995      0.64434587352104      0.00028645270415
  C   -1.99430253400553      1.67004236482605      0.00009658533383
  N   -2.79741797060090      2.50644254872146     -0.00029650321886
  C   0.35717588501119      0.95051346153423      0.00023085708113
  C   1.05104090345469      2.20063551394987      0.00004402894734
  C   0.49785356925079      3.48746150617903     -0.00007041745480
  N   0.08380108540760      4.57347025156252     -0.00003401429606
  C   2.43377173351110      1.94387012092617      0.00001717856881
  C   2.62906009147094      0.55903177728385      0.00020267135171
  C   3.88192154529350     -0.06715931613887      0.00024112030136
  N   4.93460677294405     -0.55973907860963      0.00028315784487
  C   1.34311090413726     -0.07892019532136      0.00034006714160
  C   0.97252575932862     -1.42810374224967      0.00052835608487
  C   1.91922316810660     -2.48185585020993      0.00063948191435
  N   2.64513866352583     -3.38622837136869      0.00073313855227
  H   3.20899090351502      2.68961953414584     -0.00011308604433
  H   -0.58366383473572     -3.94825577120461      0.00093151554234
  H   -3.21425376641837     -3.49889398756330      0.00093878403884
