25
Coordinates from ORCA-job ./opt_b97-3c_parallel
  N   -4.77243171387240     -1.94715207143075     -0.01143097417834
  C   -4.12817559858726     -0.97872078558474     -0.00937687093771
  C   -3.32068456217631      0.16354806954640     -0.00695590022158
  C   -3.73810255827495      1.47996772748057     -0.01389835455357
  C   -2.58412329734518      2.31748678121862     -0.00842246066773
  C   -1.43923682054583      1.52658828158257      0.00243654614463
  C   -1.85898960161615      0.15563122817479      0.00384307230879
  C   -0.95353259630985     -0.86860090526159      0.01230109839631
  C   0.41671916277663     -0.52292970795566      0.02210857827324
  C   1.56279056509729     -1.33095519017554      0.03054634176529
  C   1.62024438188725     -2.72674720743366      0.02134313322301
  N   1.71610079076034     -3.88646330944028      0.00749679313624
  C   2.73481123834131     -0.48365072175740      0.03288175011028
  C   2.29915132850362      0.84242222986197      0.02580319169979
  C   3.13595297289169      1.95599883011411      0.01293887839962
  N   3.85374062273381      2.87360470587807     -0.00192501796383
  C   0.84859071802654      0.84479205977572      0.02124967288037
  C   -0.06299124245635      1.86559761451875      0.01042360379946
  H   0.25160361095503      2.90140624929829      0.00810861116531
  N   4.00400340003173     -0.94070997020682      0.09445951848176
  H   4.75429331157567     -0.29839454025968     -0.09086745111437
  H   4.18531210023928     -1.90185669185322     -0.13504226473619
  H   -1.26140576130908     -1.90681331776807      0.01217898135817
  H   -2.60630885473635      3.39694138058959     -0.01211940230163
  H   -4.76177794069047      1.81351940298793     -0.02238927096733
