25
Coordinates from ORCA-job ./opt_b97-3c_parallel
  N   3.75918515052710      3.15512022167127      0.01686996626265
  C   3.34604262623352      2.06775542848578      0.01321586869306
  C   2.85126946211268      0.75865339408433      0.00880976524510
  C   3.67037022320537     -0.44675636234958      0.01655848078905
  C   2.84536589409889     -1.52618897592794      0.00999441228387
  C   1.47741440313254     -1.04855967860001     -0.00243859385737
  C   1.50703468093363      0.39065434023952     -0.00307814685680
  C   0.32067410957950      1.16760021594907     -0.01443171592657
  C   -0.87083596916817      0.50640808460595     -0.02513245433324
  C   -2.24871580720104      0.97244205192442     -0.03238820387983
  C   -2.68942915435389      2.29251699180621     -0.01547098885901
  N   -3.09389886594254      3.38536044038648      0.00348198941612
  C   -3.08121620282688     -0.14868703458709     -0.03789807622521
  C   -2.25332191732754     -1.32291788330755     -0.03526487504634
  C   -0.92708049455980     -0.93399072726714     -0.02353177871731
  C   0.26999391197583     -1.71195632720977     -0.01222692682705
  C   0.19376584749009     -3.12626684317608     -0.00790108456780
  N   0.11024180899330     -4.28345362078427     -0.00313736487620
  H   -2.61880912389169     -2.33900978643365     -0.04683037413936
  N   -4.43620146381576     -0.16151796393971     -0.10512324127116
  H   -4.92231284999167      0.70029752230378      0.07634635562482
  H   -4.92101667395381     -0.98853452547542      0.19286577146627
  H   0.37353509830662      2.24862242818266     -0.01603369780616
  H   3.13865345881301     -2.56342325302395      0.01285041270734
  H   4.74695833523068     -0.44574641105728      0.02608211130116
