23
Coordinates from ORCA-job ./opt_b97-3c_parallel
  N   -4.17381057918865     -1.61628864220785      0.01762041745391
  C   -3.43960067763913     -0.71454789922340      0.01410414539457
  C   -2.57002241861648      0.38175681626061      0.01010360974656
  C   -2.93136071267795      1.70312918245973      0.01545367713701
  C   -1.74550401624084      2.52287277441217      0.00909455673902
  C   -0.63247280952436      1.71707387204471     -0.00044273981740
  C   -1.10045984553007      0.33707400849589     -0.00030265668811
  C   -0.21357385806945     -0.69948702429975     -0.01283297322741
  C   -0.58345874965004     -2.06673800523004     -0.01128476651140
  N   -0.79712506020534     -3.20691734268892     -0.00993287071755
  C   1.19109669207915     -0.36722710978006     -0.02101336817865
  C   2.31179328015389     -1.14111548121990     -0.03348292992997
  C   3.42940411188239     -0.18900120348705     -0.03434918153840
  N   3.03609476995675      1.06445161732640     -0.02608217718818
  C   1.64763880643843      1.01488678025217     -0.02203063130944
  C   0.75552537815140      2.03913213561784     -0.01016812917096
  H   1.08266837939407      3.06962340943800     -0.01119179791116
  N   4.72923693675226     -0.56443742510306     -0.09863477472569
  H   4.98328525419433     -1.48990954274879      0.19455392127631
  H   5.41314985843678      0.15403940392255      0.06793333306516
  H   2.37334152362938     -2.21871159307640     -0.04616042855636
  H   -1.74548312825452      3.60195818026081      0.01148433131837
  H   -3.94478024167197      2.06913240757435      0.02337740833982
