23
Coordinates from ORCA-job ./opt_b97-3c_parallel
  N   4.47795742801198      0.20226688355649      0.00070929535509
  C   3.38481865730872      0.59909132811272      0.00063683650935
  C   2.08342132683869      1.11367147794168      0.00060423713985
  C   1.76231507383405      2.48334494095004      0.00082852336515
  C   0.37296362837407      2.61624525642052      0.00070888982484
  C   -0.20454480558924      1.32801409606069      0.00040802275763
  C   0.85616961117765      0.36763998019165      0.00034061235637
  C   0.58091397137851     -1.00264091729881      0.00006010427676
  C   1.60103679099226     -1.98787783932053     -0.00001069131745
  N   2.39050964488238     -2.83716802814884     -0.00005612452696
  C   -0.76308548907443     -1.40702607629677     -0.00015938537244
  C   -1.35782082191376     -2.68994952792536     -0.00046031930664
  C   -2.75503928020847     -2.53447051212856     -0.00058036719992
  C   -3.05406726928858     -1.17528157356767     -0.00036126572156
  C   -1.82732684677865     -0.44651499407113     -0.00009557862616
  C   -1.55170436138643      0.91720385332642      0.00018820313421
  C   -2.59652004865263      1.87562472894904      0.00025308279394
  N   -3.44953380981999      2.66146200083593      0.00031173846651
  H   -4.03890909434993     -0.73481561859514     -0.00038538735745
  H   -3.47327093508189     -3.33744568584755     -0.00080520254087
  H   -0.82059971513354     -3.62579667867449     -0.00057687254856
  H   -0.17422914960997      3.54581033849926      0.00082594051324
  H   2.48295786108920      3.28306027673041      0.00105182692504
