24
Coordinates from ORCA-job ./opt_b97-3c_parallel
  N   -4.74816632242601     -0.71309538537805      0.00005695049759
  C   -3.83999575139402      0.01331655450098     -0.00002069275855
  C   -2.78154679017099      0.92805860555659      0.00009106661321
  C   -2.94106665257489      2.32453707991261      0.00022485478472
  C   -1.67804471125044      2.91574848708588      0.00031263234047
  C   -0.69221724851885      1.89764101568000      0.00024035754203
  C   -1.37050762304300      0.63726437710015      0.00010146936609
  C   -0.65741213025605     -0.56280711988357      0.00001497474951
  C   -1.32037593009148     -1.81456697782130     -0.00006071939147
  N   -1.86296836586926     -2.83944528239200      0.00010641321870
  C   0.75128195688959     -0.48702079408619      0.00003855366873
  C   1.76809423593062     -1.49100116715597     -0.00005294543750
  C   1.59970336576185     -2.88218117799373     -0.00021107724641
  N   1.50556476731226     -4.04056293246750     -0.00025576321822
  C   3.02555524714891     -0.85567769484757      0.00005083323060
  C   2.81913223782867      0.52648462745082      0.00018752947127
  C   3.80948715210913      1.51684292009865      0.00028634959805
  N   4.60638003412820      2.36321503741695     -0.00001118717937
  C   1.40665061619653      0.77766556339639      0.00018590754704
  C   0.69680903182599      1.96848158763850      0.00027902511721
  H   1.21093526507715      2.92118944960749      0.00037621538685
  H   3.97764653239796     -1.35641314931639      0.00002268765059
  H   -1.48059505514075      3.97649524259713      0.00042141294185
  H   -3.88948656327113      2.83370286220013      0.00024991880701
