21
Coordinates from ORCA-job ./opt_b97-3c_parallel
  N   3.97398728964059      1.23217649008289      0.00045487305316
  C   3.13343144617674      0.42819625378268      0.00045822625346
  C   2.13780728980282     -0.55466015751743      0.00054850069345
  C   2.36303868212646     -1.93366204761845      0.00073806070003
  C   1.12278621360576     -2.59845119337482      0.00079116063427
  C   0.09634838604144     -1.64043052482955      0.00063352073277
  N   -1.23590199961815     -1.87150251202330      0.00062898162644
  C   -1.98404204509023     -0.79000627558618      0.00045566143095
  C   -3.43030209492944     -0.70759742804991      0.00040295053909
  C   -3.78056872076170      0.62196793221351      0.00020646835064
  C   -2.59410620284530      1.41436103802047      0.00012564436808
  C   -1.48604114446190      0.56559923048724      0.00027802451654
  C   -0.09295310973951      0.79251416036624      0.00029030410331
  C   0.41054747097261      2.11798599351886      0.00012903715322
  N   0.76137329389103      3.22317008827382      0.00005216668400
  C   0.70900335825804     -0.33811126682416      0.00046863791058
  H   -2.56031187058479      2.49371634885756     -0.00002559645502
  H   -4.78314346409719      1.01671123521880      0.00012394924514
  H   -4.09112976690172     -1.55938434032667      0.00050498949800
  H   0.97188057383209     -3.66612615131910      0.00093257206217
  H   3.33490590928236     -2.39708171405251      0.00083159069972
