22
Coordinates from ORCA-job ./opt_b97-3c_parallel
  N   -4.80373272996813     -1.74602330017837     -0.00510810824544
  C   -4.02402297077931     -0.88356800822575     -0.00405032430211
  C   -3.07198668330488      0.13997177916840     -0.00307151431922
  C   -3.28737541221799      1.48755798337577     -0.00698481655585
  C   -2.01468731802776      2.19153357027649     -0.00410902161599
  C   -0.99886047975711      1.27753733092627      0.00219710843222
  C   -1.60303125851749     -0.05557258205607      0.00296960418405
  N   -0.93758036410795     -1.16805883549929      0.00652414161862
  C   0.41883019155454     -0.96736017903298      0.01039420995646
  C   1.41114891162064     -1.89965099170154      0.01568733026042
  C   2.69341384806627     -1.20232245260527      0.01603266769389
  C   2.47494855938214      0.17040343954515      0.01455875458836
  C   3.48435994942666      1.13064665943037      0.00474170595018
  N   4.37671106013038      1.87882711715057     -0.00535968007800
  C   1.03732989092949      0.37326213392637      0.01094279968929
  N   0.35810822730490      1.48181726034589      0.00672894657169
  N   3.87589113027787     -1.83582624142983      0.04645272000962
  H   3.93377020464593     -2.82747647801575     -0.08779776998652
  H   4.72894663020204     -1.30950324917138     -0.03206305594068
  H   1.28404999914681     -2.97154479796907      0.02239668030042
  H   -1.90046413006819      3.26405735510679     -0.00678684935493
  H   -4.25336725043897      1.96472487483320     -0.01167561465648
