19
Coordinates from ORCA-job ./opt_b97-3c_parallel
  N   3.63517745538058      2.06304270971371     -0.00000450985940
  C   2.92214238195526      1.14470391090524      0.00049734356067
  C   2.10415571742342      0.00957457854487      0.00058561027210
  C   2.59146090379268     -1.36244193188612      0.00061909319975
  C   1.52475502565810     -2.20293723609687      0.00065006941564
  C   0.30890691525422     -1.40477212021422      0.00063502996869
  C   0.70933344231825     -0.01478767303218      0.00061859248309
  N   -0.13273866684473      1.05471682344492      0.00064520291344
  C   -1.39350166046573      0.73776114764173      0.00068670188585
  N   -2.44707327893690      1.67019091938948      0.00073699649285
  C   -3.53364060800733      0.94915325761849      0.00076282238058
  C   -3.27935170414122     -0.49019792044208      0.00074204680106
  C   -1.91807706851597     -0.62673051358720      0.00070230819332
  C   -1.01515792112930     -1.72404625092748      0.00068499273004
  H   -1.36842034435204     -2.74811983901642      0.00072050655200
  H   -4.02656835321234     -1.26971626514460      0.00076037317825
  H   -4.51249939607897      1.40817892305101      0.00080507380803
  H   1.56040606085354     -3.28090508972560      0.00066595227946
  H   3.63451863284848     -1.62971017813670      0.00060949914462
