24
Coordinates from ORCA-job ./opt_b97-3c_parallel
  N   -1.26997095916231     -4.43571103994270      0.00011778236777
  C   -1.24822412729094     -3.27318299782538      0.00010204427262
  C   -1.32187862981101     -1.87832267505884      0.00019093233195
  C   -2.50251025222950     -1.16119534066628      0.00035757802121
  C   -2.18415018787358      0.29057284016537      0.00025922374876
  C   -3.19088772043472      1.26048183717013      0.00018336198654
  N   -4.10876367779079      1.97473393751137      0.00005150756239
  C   -0.82339940905352      0.42873172283513      0.00009696851778
  C   -0.23191109491083     -0.92953203967296     -0.00001091789303
  N   1.04395591847201     -1.18114798179255     -0.00029338424652
  C   1.83759372857642     -0.07176581409208     -0.00047752436367
  C   3.21208181935831      0.02120653193009     -0.00043437326918
  C   4.16325766122475     -0.99767483676346     -0.00013009165184
  N   4.99506726466491     -1.81094327567326      0.00011703535340
  C   3.50490196208156      1.47832642889995     -0.00053211785462
  N   2.43769789328975      2.21330176920503     -0.00056432240432
  C   1.36916998043214      1.30625242938840     -0.00047766631078
  C   0.03135720158980      1.58079090211872     -0.00006599796456
  C   -0.48814132007012      2.89585809603196      0.00045913493583
  N   -0.94437902519121      3.96164630295910      0.00096328189625
  H   4.49930086030660      1.90063463429578     -0.00058277399193
  N   -3.75572504622309     -1.60956669488205      0.00064522528851
  H   -4.53811963698402     -0.97881764406689      0.00052890508438
  H   -3.94421789636794     -2.59756406277684      0.00062589798197
