19
Coordinates from ORCA-job ./opt_b97-3c_parallel
  N   -3.74456665911601     -2.04875301609013      0.00105975921863
  C   -3.05396892885563     -1.11365256163494      0.00094231551942
  C   -2.21903338341349      0.00795448729359      0.00066010403818
  C   -2.59463391983515      1.32419546264382      0.00014202932931
  C   -1.41439680789617      2.15506252413072     -0.00000837781626
  C   -0.29127135654385      1.36242722991093      0.00042150498813
  C   -0.74064758174557     -0.02568848692838      0.00086528175551
  N   0.02407898433087     -1.07374376298560      0.00134183690608
  C   1.36495156914273     -0.77933912715090      0.00140859038471
  C   2.44520343580145     -1.63238994924198      0.00186166658824
  C   3.61308006955545     -0.77355657831322      0.00170082612186
  N   3.31897447920169      0.50573121525119      0.00119382957597
  C   1.91779615050430      0.55778098614737      0.00099339996850
  C   1.10143400604049      1.64456413573117      0.00049733180742
  H   1.48464498740133      2.65663587266072      0.00018105063952
  H   4.64041604533472     -1.10930151087593      0.00195806199927
  H   2.42553028693413     -2.71063793576023      0.00225344323893
  H   -1.43142999180033      3.23472382764618     -0.00040194112691
  H   -3.60901464884097      1.68646952766564     -0.00011703863650
