21
Coordinates from ORCA-job ./opt_b97-3c_parallel
  N   3.85700534231628      2.66005499283187     -0.00470780454949
  C   3.41855426553338      1.58321429699530     -0.00293153752665
  C   2.87820533122366      0.29481172529453     -0.00113176820445
  C   3.53803740583264     -0.89527559535533      0.00010703329107
  C   2.58560927284392     -2.00056339296810      0.00165107867329
  C   1.31579859929274     -1.49993084367926      0.00135303921316
  C   1.42638743668880     -0.03097668182613     -0.00030691301883
  N   0.42422465065136      0.78554934544464     -0.00078203190921
  C   -0.77535035592067      0.11658722497443      0.00033531834314
  C   -2.04951430892775      0.60592686313640      0.00020319494946
  C   -2.52803219585677      1.91503339329762     -0.00094493606643
  N   -3.02022061508486      2.96940421542691     -0.00140767516386
  C   -2.91240380805994     -0.61714747872045      0.00174040158910
  N   -2.23027400150009     -1.73523836758712      0.00273851853354
  C   -0.90491076017515     -1.36024789498338      0.00195551911054
  N   0.12055853379377     -2.16210601516447      0.00246101024359
  N   -4.24282626874080     -0.53801188433146      0.00199212863822
  H   -4.71601936989677      0.34729432467632      0.00155720082395
  H   -4.78735335615732     -1.38259171259273      0.00327690634168
  H   2.85280843536951     -3.04524505304636      0.00290722525651
  H   4.60936428097324     -1.01239258772323     -0.00008450066803
