21
Coordinates from ORCA-job ./opt_b97-3c_parallel
  N   -3.73857484743558     -2.06029775175492     -0.00017538821209
  C   -3.06260657156328     -1.11326139226750      0.00012671911568
  C   -2.22449487106837      0.00795640744132      0.00061682795375
  C   -2.62969443170286      1.35380173956774      0.00132646592060
  C   -1.48489729832875      2.15796795157430      0.00165107560004
  C   -0.34140016907722      1.33004513075615      0.00114925858969
  C   -0.79079386458773     -0.03008299019205      0.00048567775684
  C   0.10493638058469     -1.08810180140175     -0.00011673011300
  C   1.46663233804692     -0.78951413720055     -0.00006131665121
  C   2.61400335919069     -1.61378332465064     -0.00056133532225
  C   3.75991090556813     -0.79716102325375     -0.00022036201430
  C   3.35323033824422      0.53329368208415      0.00047880513093
  C   1.92565474604128      0.57400760721269      0.00060446207227
  C   1.02881806759043      1.62580170702167      0.00120683473085
  H   1.37082919530246      2.65431271819062      0.00170806724749
  H   4.00336181645167      1.39543125232310      0.00087237705352
  H   4.77940660717842     -1.14689210245491     -0.00046593148658
  H   2.61018880966300     -2.69381585447682     -0.00111151765566
  H   -0.24558000506266     -2.11352344393875     -0.00061224538735
  H   -1.48008571270290      3.23750082683846      0.00220119979044
  H   -3.65177080623254      1.69300557898143      0.00157461258038
