20
Coordinates from ORCA-job ./opt_b97-3c_parallel
  N   -3.29621573783875     -2.85098517358361     -0.00036857734582
  C   -2.95159814440426     -1.74075923446578     -0.00034540895200
  C   -2.53709583482261     -0.40618048459502     -0.00054871741586
  C   -3.33011363633952      0.71012443799238     -0.00084065897891
  C   -2.49420577387096      1.88377483906675     -0.00099764820203
  C   -1.16710979917004      1.50968848272719     -0.00078735211620
  C   -1.12944393556340      0.05528406612306     -0.00049170656206
  N   -0.05837197305162     -0.67887423776872     -0.00025729128618
  C   1.10116228601865      0.04492988220618     -0.00029946148167
  C   2.41930402846088     -0.40313630809946     -0.00005275457194
  C   2.89792677366320     -1.71355698471402      0.00032700960702
  N   3.33878796348843     -2.79006828377398      0.00100006717026
  C   3.23428975404110      0.81047357765453     -0.00024316513815
  N   2.51745842430077      1.90256642069197     -0.00055124006911
  C   1.18393250637010      1.48249220425445     -0.00059236610650
  C   0.04790178273619      2.23729649148161     -0.00083519740857
  H   0.07582397444796      3.31880675926262     -0.00104240669737
  H   4.31377604917025      0.82764501497641     -0.00013716346757
  H   -2.86849996117784      2.89660866485387     -0.00125019915074
  H   -4.40700417495852      0.71440149610958     -0.00094520932658
