23
Coordinates from ORCA-job ./opt_b97-3c_parallel
  N   4.23258230377934      2.02367649119379     -0.00249652741873
  C   3.54539476147928      1.08543523946626     -0.00177465788523
  C   2.79838059828869     -0.09504344059252     -0.00089605273487
  C   3.39556621636615     -1.46441289709868     -0.00089603670459
  N   2.51547253720783     -2.40602145663963      0.00002989596238
  C   1.26665921727093     -1.74817566517106      0.00071988340327
  N   0.13006858287337     -2.36154519544719      0.00174612235506
  C   -0.96033384094503     -1.53265472526826      0.00227910992177
  C   -2.26639631402865     -1.92537122285863      0.00335576089767
  C   -3.10022645318356     -0.72993809418112      0.00357369937144
  C   -2.28354149786702      0.39939963585220      0.00261851911002
  C   -2.78377387404666      1.70190578854504      0.00250459523709
  N   -3.30173025107012      2.74451305993178      0.00242166393513
  C   -0.91861771643771     -0.06218973310282      0.00178273051639
  C   0.29692663790632      0.57214864548794      0.00068267239608
  C   0.43963908683841      1.97783154989220      0.00013022617535
  N   0.57888489867064      3.12966004345814     -0.00034046244734
  C   1.44531067369925     -0.28944350181166      0.00012860100475
  N   -4.43686360816134     -0.75563955620640      0.00467276892859
  H   -4.96305114614931      0.10166676870270      0.00448117782155
  H   -4.94712478529030     -1.61820397655515      0.00475672705864
  H   -2.62181047368932     -2.94378077097987      0.00396076107597
  H   4.45907924598882     -1.65626395911704     -0.00159565938040
