21
Coordinates from ORCA-job ./opt_b97-3c_parallel
  N   3.95378793568159      1.29133577467803      0.00213566320355
  C   3.09362536170020      0.50830940794130      0.00098357331595
  C   2.10311649814156     -0.47778434588634      0.00002445110970
  C   2.34444004880117     -1.90691621770536     -0.00013196214104
  N   1.23179080142598     -2.60353145868856     -0.00092286780182
  C   0.19913055274702     -1.67519700859774     -0.00132291182524
  C   0.71263891529912     -0.33740222972839     -0.00079145249931
  C   -0.17235829353133      0.78499877485287     -0.00107857870236
  C   0.30939759744765      2.11770590840530     -0.00053914564101
  N   0.67120531977004      3.21972964610530      0.00025199580707
  C   -1.52492091185751      0.52602796078699     -0.00184566296298
  C   -2.67370557566670      1.41088149841693     -0.00228374922420
  C   -3.80259483600675      0.63765398943695     -0.00290559564324
  C   -3.41296884307035     -0.74270184030317     -0.00291736318470
  C   -2.02293417861485     -0.82673172088845     -0.00228876652321
  C   -1.15047446718516     -1.93044197820786     -0.00204869931108
  H   -1.51870936135878     -2.94768001514240     -0.00238892805767
  H   -4.09296585244250     -1.58184764609622     -0.00333938469078
  H   -4.81938280239908      0.99410515318011     -0.00332488035582
  H   -2.62368743253174      2.48805567563732     -0.00211015816778
  H   3.31844411605041     -2.37158413539656      0.00035916589596
