21
Coordinates from ORCA-job ./opt_b97-3c_parallel
  N   -4.64118347476814     -1.52082965456486     -0.00042276682105
  C   -3.81730776022917     -0.69912277599621     -0.00001881498446
  C   -2.86870319535545      0.32177054194533      0.00024043984593
  C   -3.14856544801547      1.76028623644840      0.00053326610742
  N   -2.06479112122021      2.48540552780104      0.00070052309858
  C   -0.99698548558213      1.57840708387533      0.00053281325696
  C   -1.47874484360343      0.22229512675555      0.00026047614783
  N   -0.69522452242396     -0.89360149245443      0.00007244540360
  C   0.57995912042082     -0.63601921801389      0.00014157176432
  C   1.69251268839707     -1.60896163221800     -0.00000325672435
  C   1.54604855378487     -3.00060128407154     -0.00032220712883
  N   1.41964477651859     -4.15544700176931     -0.00085326567698
  C   2.86142885555480     -0.90396275759544      0.00015865017732
  C   2.55087141495865      0.51475659171981      0.00040685437454
  C   3.50779177858662      1.53737669957506      0.00061243380905
  N   4.29618061585576      2.39173060249615      0.00061494135087
  C   1.17068084323979      0.68781317437012      0.00040700561977
  C   0.34264210105558      1.83379173127138      0.00060609755189
  H   0.74421383267863      2.83805549527095      0.00077717916668
  H   3.85748934236623     -1.31098319274831      0.00010538616117
  H   -4.13668342591951      2.19505341200285      0.00060115199993
