21
Coordinates from ORCA-job ./opt_b97-3c_parallel
  N   -4.22614380774053     -1.48364272750938      0.00014642546703
  C   -3.37399584287985     -0.69201813355756     -0.00001465532692
  C   -2.41756279064559      0.32587849048304      0.00017292048259
  C   -2.74715476792515      1.78190789090708      0.00001613272498
  N   -1.71272065281967      2.54964258475555      0.00028384215638
  C   -0.60278479839291      1.67433264801599      0.00062943960615
  C   -1.05264006820798      0.26066697661054      0.00054192982630
  C   -0.09256106184277     -0.79845070410555      0.00083387556451
  C   -0.46977440570640     -2.15935968506469      0.00074027624865
  N   -0.78955560358687     -3.27443634301638      0.00063683763025
  C   1.22103691302896     -0.39462332837415      0.00118515025992
  N   2.36011656188931     -1.15232622246689      0.00153644612186
  C   3.34752343037428     -0.27509863965183      0.00181771956841
  C   2.89116060716740      1.13046237650279      0.00165631855810
  C   1.53893808549601      1.04940749526195      0.00125396246007
  N   0.62023637804160      2.07706066106546      0.00096393227002
  H   3.49941060019397      2.02054834807527      0.00180764713124
  N   4.63290413573905     -0.63222296042575      0.00211032036989
  H   5.37247318199769      0.04407147951844      0.00276753089959
  H   4.86982078933143     -1.60978422488080      0.00244264768754
  H   -3.75761588171202      2.16669696915684     -0.00028426600661
