20
Coordinates from ORCA-job ./opt_b97-3c_parallel
  N   4.04546088091993      2.24281280830125     -0.00249418036911
  C   3.37988651247526      1.28998608827122     -0.00143718034982
  C   2.57305304599899      0.14843274910361     -0.00062165694842
  C   2.95522320045931     -1.16204093526231     -0.00018008579024
  N   1.88110493572424     -2.07307606481963      0.00054704910580
  C   0.78757809777363     -1.35278774159243      0.00055254016973
  C   1.10796138299104      0.11212630401130     -0.00017271628621
  N   0.25518366774679      1.07621691913763     -0.00046262038126
  C   -1.05941211564631      0.62807770033181      0.00015951978454
  C   -2.18973694560790      1.36694287297489      0.00088841000799
  C   -3.29048992082222      0.36869822911265      0.00180617093173
  N   -2.87271140957543     -0.87416799811878      0.00151018847438
  C   -1.48965180199139     -0.78651168138650      0.00037802725976
  C   -0.56353998816378     -1.78221063868181      0.00102374156049
  H   -0.82068418708526     -2.83170395782336      0.00139394001911
  N   -4.58280098322072      0.71801166496444     -0.00437406062392
  H   -5.28556686027209     -0.00044311361775      0.01495812976108
  H   -4.87248038577152      1.67631124684001      0.02955855500287
  H   -2.27656421516758      2.44210890010107     -0.00009710736488
  H   3.96501549523510     -1.53970540074734     -0.00034757966365
