24
Coordinates from ORCA-job ./opt_b97-3c_parallel
  N   -5.51972905154650     -0.23982266772141      0.06371803699998
  C   -4.36528705938316     -0.10520010484098      0.04979930567640
  C   -2.96825590513975      0.04973312710255      0.03186048531486
  C   -2.27300235408057      1.27054433758235      0.02759362561317
  C   -0.89575286747800      0.98561953123007      0.01438532125204
  C   -0.74858161100255     -0.45912538501223      0.00539062873326
  C   -2.03076732432578     -1.01343258007763      0.01090257697122
  H   -2.30459101936015     -2.05702276677503      0.02012980221325
  C   0.53210479883301     -1.05359840188472     -0.05245740092550
  N   0.69635003829294     -2.41297309094198     -0.10825967582781
  H   1.49290222526547     -2.73855966410971     -0.63168720675700
  H   -0.13269941663087     -2.94490100030697     -0.31224592734449
  C   1.63192640606494     -0.18724425692244     -0.01695825465963
  C   3.03283576230590     -0.37986137814395      0.03398732087191
  N   3.71786366785992      0.80458512471130     -0.02195421778317
  C   2.78662959957052      1.75948067033637     -0.06619697882824
  C   1.46711227267677      1.23916083811534     -0.04601113973140
  C   0.21454427609669      1.82658800360822     -0.02857287080867
  H   0.09808940540393      2.90328516611993     -0.03931017895719
  H   3.07119043739777      2.80149090822465     -0.10252896464708
  N   3.72013822174245     -1.54173678525401      0.13441371157126
  H   4.70326739103265     -1.42983047845784      0.32622661948295
  H   3.28168013775921     -2.30450012418175      0.62335306788106
  H   -2.72583741195484      2.24853540089995      0.03011288038879
