27
Coordinates from ORCA-job ./opt_b97-3c_parallel
  N   5.26823065090860      0.76110790248556     -0.02977004250436
  C   4.11076625362472      0.62830141868466     -0.04198614058496
  C   2.73382296266266      0.39016885221695     -0.04753758099731
  C   1.69246726581688      1.33581971251420     -0.02320342084594
  C   0.46756453914727      0.65651089328320     -0.02109585961795
  C   0.74663675242517     -0.76574581382439     -0.03772553858651
  C   2.15510709408731     -0.91568559764222     -0.04645994694677
  N   2.86575945145035     -2.07047346924276     -0.10604923692128
  H   3.84731384782640     -2.02057742366148      0.10982925455285
  H   2.41682518140305     -2.92075291289097      0.18276161754207
  C   -0.28006277251507     -1.70377687249119      0.00654429910362
  C   -1.58455764568499     -1.24902581526556      0.02694360740203
  C   -2.82588671115731     -1.93963552646827      0.05926802288001
  C   -3.85491264520912     -1.01484144023117      0.02082516667833
  C   -3.29104646851967      0.28681736616588     -0.04415990532754
  C   -1.88106717533524      0.16479276881065     -0.00646133614436
  C   -0.85928081689135      1.12342900743026      0.03186125470003
  N   -1.15501418341345      2.47011418983711      0.08169154174361
  H   -0.37700957328758      3.06635816878480      0.30909422817671
  H   -1.96761194578833      2.70028928337993      0.63223667277068
  N   -3.99959468957489      1.46520710757952     -0.12071914172342
  H   -3.58113143651365      2.17596855054941     -0.70148691883669
  H   -4.97923489580712      1.35313791613605     -0.32602341431818
  H   -4.91217463431408     -1.23208630747137      0.00896925590166
  H   -2.94205529505822     -3.01238187023782      0.08533117050286
  H   -0.07644668514476     -2.76916141819163      0.01221540856862
  H   1.85581108846243      2.40233869246069     -0.02132502866777
