31
Coordinates from ORCA-job ./opt_b97-3c_parallel
  N   -5.52044416670361     -0.51513299800089      0.03555350829643
  C   -4.35522144880592     -0.51094965424935      0.03463789352658
  C   -2.95914184625450     -0.42923868469838      0.02654613552553
  C   -2.03101655247003     -1.49452749665692      0.00961007990602
  C   -0.74532298566445     -0.94985490826859     -0.04085100041630
  C   -0.87193609777703      0.49175276993482     -0.03562003226859
  C   -2.24171104967477      0.79709021223418     -0.01523496767037
  N   -2.80135230063804      2.07844759595963     -0.02135170163637
  H   -3.80927269312708      2.04959862316514      0.04908900572143
  H   -2.55081930641861      2.61139369830936     -0.84358681584486
  C   0.26028774394796      1.33029164854516      0.02194372144748
  N   0.12033089849965      2.70089452528000      0.13925526987658
  H   0.86002586419426      3.14312201153350      0.66352995799408
  H   -0.79026527300259      2.97894161235437      0.48074938652997
  C   1.50836501437189      0.71357978096125     -0.04594994135719
  C   2.82493263697251      1.24737974023414     -0.07079162155380
  C   3.74774747884281      0.19202800329760      0.01110484289595
  C   3.03181376179836     -1.01133504917398      0.06808175594055
  C   1.63852517166268     -0.72419406605492     -0.01737259560961
  C   0.52888314773694     -1.56163628298483     -0.05882049122125
  N   0.66503953078023     -2.94000251456623     -0.07640847718438
  H   1.42783161256846     -3.26968985327956     -0.64811816326788
  H   -0.18526910840501     -3.43093787699972     -0.29859651743848
  N   3.57195957737091     -2.27594000140998      0.15804792400221
  H   3.02936206946068     -2.91972952777738      0.71471795105470
  H   4.54401926858353     -2.29556837592078      0.42136576011182
  H   4.82241546926290      0.29171141925359      0.03335059260595
  N   3.13414308021119      2.59012986817344     -0.12673326892222
  H   4.09850426446817      2.78671872586668     -0.34098708714803
  H   2.51503359665758      3.13751294197086     -0.70570385184268
  H   -2.30803604684902     -2.53616521523219      0.04735421744677
