27
Coordinates from ORCA-job ./opt_b97-3c_parallel
  N   -5.49936909387652     -0.49836140260098     -0.03513271583815
  C   -4.34430816022067     -0.36133913925244     -0.02550341166632
  C   -2.95035815237290     -0.19480278227376     -0.01343479002282
  C   -1.99689420953222     -1.23325450715165     -0.01322421357042
  C   -0.72359871913131     -0.64916346824817     -0.00807489966557
  C   -0.89552117229120      0.78132581171008     -0.00151997793552
  C   -2.26753563881376      1.04388855741751      0.00130486767133
  H   -2.75916491723825      2.00380905975184      0.02584550534170
  C   0.22252039428354      1.65685763527814      0.03490729860113
  N   0.04446436890977      3.00081905317150      0.11344260078201
  H   0.82004524435563      3.60057024641837     -0.09977345238156
  H   -0.85556328451226      3.37491099237982     -0.12479765177648
  C   1.49581035471267      1.07254829803482      0.03398967661399
  C   2.79032588401950      1.63774235078958      0.08508276661277
  C   3.73709192139569      0.62106660841943      0.03486243822193
  C   3.05608081157599     -0.61245186501388     -0.05679972631921
  C   1.66072920831399     -0.35615183509597     -0.02478827233848
  C   0.56632210033587     -1.22753145585446      0.02403058409956
  N   0.73767136873062     -2.58464897117602      0.07390091126802
  H   -0.07677848595601     -3.11746159403698      0.32767011933733
  H   1.57289536940430     -2.90429962980666      0.53940453851414
  N   3.63879630553433     -1.86035978272032     -0.14774683086812
  H   4.63374813815267     -1.84048630231763     -0.30540605519361
  H   3.18604080260401     -2.48954112256408     -0.79448676778380
  H   4.80877339276841      0.74600278405893      0.03149844767813
  H   3.02827186926281      2.68956175940592      0.14837279110607
  H   -2.24407198821474     -2.28291856222296     -0.04213090978800
