18
Coordinates from ORCA-job ./opt_b97-3c_parallel
  N   3.85145627951173      1.89046118040494      0.00308872439895
  C   3.04070611670967      1.05638333338413      0.00148424166300
  C   2.10347537041528      0.02239046862491     -0.00046607447519
  C   2.40741524781808     -1.42324554377968     -0.00309033061286
  N   1.34734000071960     -2.17396638327972     -0.00443392921305
  C   0.26190895736613     -1.28552229102154     -0.00280573179884
  C   0.72731134207404      0.09654195629228     -0.00032440653376
  N   -0.10769824222754      1.18302582683286      0.00166381661353
  C   -1.36044548560090      0.83321169679969      0.00108015694362
  C   -2.55602734785898      1.69213895669940      0.00266437343792
  C   -3.63776776998195      0.87854586787459      0.00121456813692
  C   -3.20091196459224     -0.51526307455846     -0.00132475703563
  C   -1.82788821648782     -0.55176749822418     -0.00141681558134
  N   -0.99370829376144     -1.62985683661204     -0.00339277583875
  H   -3.85254048465089     -1.37588699811970     -0.00291401617580
  H   -4.67044970524155      1.18728698109617      0.00183187841193
  H   -2.53546539827728      2.76948003745036      0.00460680343487
  H   3.40708601386636     -1.83266590746414     -0.00386496697543
