17
Coordinates from ORCA-job ./opt_b97-3c_parallel
  N   -3.92165895727561     -1.86003748654132     -0.00258102819247
  C   -3.10013597634892     -1.03667123741682     -0.00099861437149
  C   -2.13759023281626     -0.02480003654294      0.00095622648889
  C   -2.42127259443157      1.45095539116947      0.00404927359561
  N   -1.35820545235897      2.16998497351065      0.00538307217262
  C   -0.27311894693352      1.24976850934761      0.00333501098866
  C   -0.77949397135689     -0.14096286089933      0.00050311158604
  C   0.12419901944393     -1.24556814389256     -0.00185414582998
  C   1.42779824025480     -0.89085147429277     -0.00122413570422
  N   2.59363811629978     -1.66148246701524     -0.00291153056313
  C   3.53334695531240     -0.76332350471412     -0.00114683495698
  N   3.13175804234023      0.60515396902654      0.00170862192367
  C   1.83059165298631      0.52041583146094      0.00165453259217
  N   0.96295233248823      1.60122639850600      0.00396930510948
  H   4.58498005864129     -1.00579248134465     -0.00173553465251
  H   -0.21811079809300     -2.27148749198957     -0.00393859738268
  H   -3.41665783755206      1.87213503592791      0.00505749919678
