21
Coordinates from ORCA-job ./opt_b97-3c_parallel
  N   -4.92204098439250     -1.58401320304819      0.00059645228853
  C   -4.03606957363799     -0.82910775228308     -0.00011597484315
  C   -2.99023398825513      0.09367680491123     -0.00081538325122
  C   -3.13748205751485      1.57824650947768     -0.00135495031338
  N   -2.01547977873073      2.21304908590019     -0.00190491391471
  C   -1.02265511587807      1.20615760963859     -0.00177760779986
  C   -1.64070031615293     -0.14342606733787     -0.00110358626263
  C   -0.83554554011744     -1.30460578879690     -0.00087444403139
  C   0.50781780662662     -1.08042804932165     -0.00129412954138
  N   1.54932407023252     -1.98705437205071     -0.00117678642675
  C   2.64319978526976     -1.26730915151786     -0.00166696846588
  C   2.37434166802843      0.20430708145729     -0.00215855070427
  C   3.35921431228439      1.18993517860875     -0.00268053593166
  N   4.25407943329858      1.93374847649074     -0.00303498012311
  C   1.00942890928104      0.30369328523476     -0.00192277546921
  N   0.24411265887703      1.44614319856685     -0.00217207589196
  N   3.88307283276548     -1.75890356549420     -0.00179656455412
  H   4.02036486111774     -2.75434857887064     -0.00120697464200
  H   4.68605859880631     -1.15661094424399     -0.00181179344073
  H   -1.25884180138149     -2.29905409129982     -0.00038251908289
  H   -4.09102002762681      2.08818672867883     -0.00129338509812
