22
Coordinates from ORCA-job ./opt_b97-3c_parallel
  N   -4.88392496568152     -1.71858769851183     -0.00493211825419
  C   -4.06510079621186     -0.89211666522581     -0.00460633146389
  C   -3.12980300423488      0.14098408747303     -0.00457106546951
  C   -3.45637498709594      1.60304759181721     -0.00633019215761
  N   -2.42099033122549      2.37220905734731     -0.00604598415682
  C   -1.31785384356099      1.49180340662550     -0.00408771998645
  C   -1.76270880113508      0.08201920987141     -0.00315141474077
  N   -0.91307632999173     -0.98217650900923     -0.00123296633704
  C   0.34085408693886     -0.62224351054829     -0.00028579066018
  C   1.52375784633683     -1.44107303442212      0.00168807615237
  C   1.61779264230745     -2.83513079889318      0.00352264580485
  N   1.77783948779804     -3.98684595366592      0.00504008810494
  C   2.61723468082549     -0.58914408506080      0.00187002364853
  C   2.14545223796003      0.82058027907538     -0.00008334286237
  C   3.01425629301042      1.91277833596278     -0.00062277733434
  N   3.81087867138762      2.76023088052753     -0.00099358935733
  C   0.77800883069795      0.79799878418685     -0.00130604742236
  N   -0.07875057865775      1.86298518785322     -0.00327290007885
  N   3.90885689163625     -0.89931898897589      0.00339886058844
  H   4.61815296652426     -0.18691566293676      0.00374245366501
  H   4.20327830701242     -1.86164273931243      0.00495721042049
  H   -4.46584453184043      1.99019643512177     -0.00771212390285
