25
Coordinates from ORCA-job ./opt_b97-3c_parallel
  N   5.49232146002336      0.27880286566264      0.08476724783673
  C   4.33809408850216      0.13920473636306      0.06357023932973
  C   2.94321867629655     -0.02548360151742      0.03750523435811
  C   1.99831350826756      1.02280579759696      0.01265175437729
  C   0.71753508739843      0.45055943264791      0.00418233209613
  C   0.88018682390782     -0.98764832882438      0.01313521139798
  C   2.25422272201281     -1.25863508734084      0.02982863785758
  H   2.71824621365490     -2.23165823795259      0.03109290637320
  C   -0.23012466522747     -1.84072981192059     -0.04080354701183
  C   -1.48607443912733     -1.27703901746097     -0.06700715881483
  C   -2.78756268800079     -1.86593198636496     -0.07721054186842
  C   -3.73603104198407     -0.87013647588811     -0.01982763973632
  C   -3.05952147647321      0.38675196409983      0.03776520098418
  C   -1.66522931975870      0.15127907067636     -0.03263170806164
  C   -0.56748189507636      1.02476027614569     -0.06155928988922
  N   -0.75013381710871      2.38800515453433     -0.12004228445176
  H   -1.51198834482760      2.69282842269723     -0.70553147473670
  H   0.08533432729200      2.92039465370496     -0.29756476922170
  N   -3.66924688429953      1.60015262531570      0.15006446675473
  H   -4.64411625145139      1.58755184358489      0.39945991857934
  H   -3.14974187642152      2.32179696792574      0.62486069164278
  H   -4.80682389842158     -0.99787018315955      0.01026258369197
  H   -2.98684179789751     -2.92637347010507     -0.10388584838336
  H   -0.10059400128120     -2.91626378771331     -0.04975658870941
  H   2.25887148550142      2.06991496839250      0.02359427370549
