17
Coordinates from ORCA-job ./opt_b97-3c_parallel
  N   -3.89082082570090     -1.90028935644079      0.10260464087321
  C   -3.12409658986378     -1.02879376062507      0.04131042547779
  C   -2.20164707292301      0.02287431570795     -0.00792446897775
  C   -2.44530676251336      1.40544268554321      0.01062370582768
  N   -1.32519933907829      2.14811181740642     -0.01569906079446
  C   -0.29204811194270      1.31417785869251     -0.11931444462471
  C   -0.79761379876609     -0.08661718699391     -0.12617260851225
  N   0.08833680858004     -1.04293596874601     -0.03138617342170
  C   1.30697053376320     -1.14536586154544      0.01609762460176
  C   2.54609235220974     -1.73673217874598     -0.02716584994349
  C   3.56740524953779     -0.80125497815694      0.04550700162723
  N   3.22470396440315      0.50689190709917      0.07106460582605
  C   1.97962243603153      0.76669201057788      0.08598166136463
  N   1.00997177983634      1.53282835019825     -0.02456723827178
  H   4.61601171010877     -1.04741173023420      0.06699582499261
  H   2.66231869210613     -2.80468635226374     -0.11974992183117
  H   -3.41480606758861      1.87540271332668      0.02988933898635
