19
Coordinates from ORCA-job ./opt_b97-3c_parallel
  N   3.90911111249278      1.87945240975193      0.00075603175313
  C   3.11269205017379      1.03097134754089      0.00017579950425
  C   2.16264707852712      0.00688157695497      0.00014803126376
  C   2.43241504854027     -1.43717849380385      0.00064360918701
  N   1.34716415832607     -2.15519362517755      0.00057734087082
  C   0.28698086142817     -1.23986607447169      0.00001784142155
  C   0.78512619491333      0.12465038209686     -0.00026710507821
  C   -0.12201949555142      1.21635871760156     -0.00083367552662
  C   -1.43998922008919      0.87846571102983     -0.00107773773888
  C   -2.67385100210628      1.65936159196502     -0.00164056053005
  C   -3.72617090701018      0.79139941924650     -0.00165102409725
  C   -3.21827608135098     -0.55635444406054     -0.00110862777578
  C   -1.83042008699483     -0.51442107029152     -0.00075916228169
  N   -0.97611262352843     -1.57082831704709     -0.00021448351386
  H   -3.81132177235400     -1.45819887960730     -0.00098694648278
  H   -4.77090644119712      1.05569081519102     -0.00200261909265
  H   -2.72659983251955      2.73695554266433     -0.00198110750701
  H   0.22882540502251      2.24101433187305     -0.00104727758401
  H   3.41904792637793     -1.87635040625642      0.00104072460824
