26
Coordinates from ORCA-job ./opt_b97-3c_parallel
  N   -5.33982575312008      0.03545577205530     -0.01854098872827
  C   -4.18027571211066     -0.07422216362739     -0.02396245804729
  C   -2.78304800961365     -0.12546666351954     -0.02400324021036
  C   -1.95897681209061     -1.26906376098341     -0.00389378800834
  C   -0.62233090567553     -0.86032677521029      0.01970339619587
  C   -0.60183656668402      0.59138105260205      0.00914692713874
  C   -1.95236360086625      1.03012318972529     -0.01142165750452
  N   -2.40569311198110      2.30942836355988     -0.07686187690650
  H   -1.80704865662172      3.03979166219704      0.26463237124804
  H   -3.38323399194914      2.45608945141936      0.11350840780996
  C   0.59179673397156      1.29884419991018      0.01071429162161
  C   1.77057153548274      0.57735057518301      0.03523533247054
  C   3.15242604472612      0.93650142176372      0.03997654911141
  N   3.95512833277638     -0.15214644940271      0.07997745466438
  C   3.13351684710235     -1.22222851382822      0.09303408710896
  C   1.77672925001096     -0.86530284156023      0.06454780500914
  C   0.57770506984458     -1.60040738664292      0.03820487104224
  N   0.57207961343584     -2.96253059493750      0.09295078100271
  H   -0.26663481222575     -3.43713380061714     -0.18816201374899
  H   1.41666449977140     -3.44277690526456     -0.15925796525513
  H   3.56023787401257     -2.21512698741316      0.13006883258580
  N   3.69135353275465      2.17901518831183      0.05710376259472
  H   3.14537022016420      2.94819810500526     -0.28590649193999
  H   4.67761576487228      2.22666201976441     -0.13526678168752
  H   0.59816909836597      2.38410994965075     -0.00555589840169
  H   -2.33999620875301     -2.27798692934102      0.01732026823455
