25
Coordinates from ORCA-job ./opt_b97-3c_parallel
  N   5.46438651280795      0.52892399713678      0.00049699654804
  C   4.30525211760347      0.43332193854846      0.00029121288288
  C   2.90636846030772      0.30944198186156      0.00004439862358
  C   1.98318787132460      1.36475475007957      0.00091336702871
  C   0.68951921458674      0.80638465543076      0.00014610253655
  C   0.82991923663647     -0.63184895332676     -0.00106382883739
  C   2.19225603895972     -0.92170042835285     -0.00119934073727
  H   2.66824284801382     -1.89026851245173     -0.00233909108999
  C   -0.31756399395725     -1.47410779948876     -0.00133914042316
  N   -0.17990076321249     -2.81885350614696     -0.00348031117034
  H   0.72602831026340     -3.24388420375423      0.00417572914078
  H   -0.97450973600362     -3.42714469864521      0.00409493265181
  C   -1.57146789698130     -0.84823309557763     -0.00112651811628
  C   -2.88853624528412     -1.36359113824719     -0.00171055806610
  C   -3.80474021739010     -0.32028555024627     -0.00113639309152
  C   -3.08355722400124      0.89650139228354     -0.00010268398856
  C   -1.68205870926816      0.58874872145368     -0.00009845941885
  C   -0.56877107125854      1.40456380869584      0.00070361786368
  H   -0.65042648643672      2.48662044690982      0.00164639869923
  N   -3.62136913289044      2.13034143899597      0.00167551163285
  H   -4.61442372309342      2.26232427517888     -0.00295124624791
  H   -3.04803676631324      2.95179540073059     -0.00219916206902
  H   -4.87899339342177     -0.41331954037691     -0.00122404451168
  H   -3.16695132925626     -2.40801328365172     -0.00286632546792
  H   2.23057733036479      2.41397560756080      0.00188292242787
