23
Coordinates from ORCA-job ./opt_b97-3c_parallel
  N   -5.23388982739458     -0.06728283015592     -0.00095991073556
  C   -4.07202148858053     -0.11062114263789     -0.00056302405042
  C   -2.66853199311659     -0.15401621495522     -0.00044950696459
  C   -1.87031616351636     -1.31107666616330     -0.00072238594400
  C   -0.52073505657680     -0.91140712285663     -0.00069751897419
  C   -0.49026730955406      0.52817624050782     -0.00037426593132
  C   -1.81266749564903      0.97759844911164     -0.00021461628989
  H   -2.16871118918730      1.99673192660885      0.00003903387642
  C   0.74722804049667      1.22681242273169     -0.00042413025468
  N   0.78683101042956      2.56914602843948      0.00002494409979
  H   -0.05321249872055      3.11514509390090     -0.00072977004524
  H   1.65782660763365      3.06415475677336     -0.00095511684450
  C   1.92926972679542      0.44975391381770     -0.00071229928673
  C   3.28792886355016      0.80214103061895     -0.00088126872949
  C   4.06256117035468     -0.37617580874996     -0.00129164335424
  C   3.20522515288509     -1.46917334919613     -0.00137847230211
  C   1.86669580492799     -0.98962321190910     -0.00103066099143
  C   0.65643130818193     -1.66023611760924     -0.00100665135422
  H   0.62089630810910     -2.74333077289700     -0.00125188153570
  H   3.49527469436736     -2.50872474372399     -0.00168200110083
  H   5.13998876529101     -0.41330728776425     -0.00150019005333
  H   3.69935537596241      1.80187216330308     -0.00069016113136
  H   -2.23827163478924     -2.32441748869486     -0.00097382740237
