28
Coordinates from ORCA-job ./opt_b97-3c_parallel
  N   -5.92051125329783     -0.33569997265727      0.02835696472326
  C   -4.76254121431089     -0.45304529998633      0.00432049902278
  C   -3.36407714610579     -0.49900108287044     -0.01500828284416
  C   -2.52947384071276     -1.62218035380971     -0.02834444403772
  C   -1.19160209489260     -1.18601498829008      0.01522529017521
  C   -1.19832508303505      0.26341360344485      0.03088294527988
  C   -2.54373944895654      0.67547710800038      0.03859121529657
  N   -3.02278218964160      1.95907398811641      0.07839602094102
  H   -4.02333050775976      2.03307650209464      0.18801324648502
  H   -2.53284983303110      2.59170002416788      0.69148375609946
  C   -0.00032911694178      0.99243353722354     -0.05518497017289
  N   -0.00041724559906      2.35834038644174     -0.21803373444470
  H   -0.83297482838067      2.72733248921883     -0.65214476057187
  H   0.83227909649397      2.72748619638685     -0.65174835211693
  C   1.19776184906170      0.26363708730358      0.03144434005330
  C   2.54309576296630      0.67594968150814      0.03977869066661
  C   3.36367685002680     -0.49837539951867     -0.01343685032526
  C   4.76212261574259     -0.45215935966124      0.00654887452448
  N   5.92005954806026     -0.33459873968365      0.03113240898973
  C   2.52928802448644     -1.62170972727963     -0.02716752098397
  C   1.19131499841422     -1.18579252912311      0.01578321116889
  C   -0.00007239336043     -1.89785529183411     -0.00438997691160
  H   0.00003665385367     -2.98012921444382     -0.03735697699865
  H   2.86574561065285     -2.64526417742283     -0.05211233044969
  N   3.02188037934509      1.95963623638647      0.07980507261117
  H   2.53154689725012      2.59217159393515      0.69266461400695
  H   4.02236318193815      2.03382588750878      0.18988523035381
  H   -2.86573004866611     -2.64579688185644     -0.05344259454074
