25
Coordinates from ORCA-job ./opt_b97-3c_parallel
  N   -5.04869351048648     -0.38334342362444     -0.02220498179459
  C   -3.88367260722977     -0.36968692418000     -0.01005822836754
  C   -2.49118034314681     -0.26549255500606      0.00259542186328
  C   -1.53729107590238     -1.29679509262774     -0.02435667624004
  C   -0.25271242364895     -0.73858091096235     -0.01878982677114
  C   -0.39533051142071      0.69748176951143      0.01375247312704
  C   -1.78935280614678      0.98039477616028      0.02547612718862
  N   -2.38526706976396      2.18440300206495      0.09394939085619
  H   -1.85778698071546      3.01947350174841     -0.07964146105851
  H   -3.37921205709797      2.24621435814347     -0.04418678109315
  C   0.71090454251143      1.53415402108036      0.03003216039712
  C   1.97259852501826      0.96037055214464      0.00679602792468
  C   3.26751208877489      1.53834502897982      0.01581464079694
  C   4.20336894592792      0.50922710906450     -0.01768020368473
  C   3.52510071605470     -0.72496026049522     -0.04557258270744
  C   2.14286603776351     -0.47486142372638     -0.03092574884688
  C   1.02636713772040     -1.33668314047138     -0.03070732212005
  N   1.17846762972160     -2.68667695028788     -0.09472782840728
  H   2.07593246989552     -3.06902057897395      0.14076036167277
  H   0.39984910777379     -3.26837785201937      0.15496179048521
  H   4.00919971552447     -1.69012282783590     -0.08854719491020
  H   5.27532004265121      0.62974789931353     -0.02395330111323
  H   3.48139278092730      2.59591015617014      0.04442815900129
  H   0.60691705276362      2.61377667858639      0.05920032362406
  H   -1.79712057566940     -2.34357719405725     -0.06422836762242
