30
Coordinates from ORCA-job ./opt_b97-3c_parallel
  N   -5.89472835722657     -0.59419922717792     -0.03633569094087
  C   -4.73114488926659     -0.55545952174125     -0.01345140410195
  C   -3.33847845523172     -0.42640346312631      0.00463444794303
  C   -2.37363481234837     -1.45084584082178      0.05653007829920
  C   -1.10359338097742     -0.86956042308222     -0.00671381376037
  C   -1.27541619068970      0.56493364667133     -0.07040275006379
  C   -2.66152231387854      0.82270978144678     -0.08627544141340
  N   -3.26998162008087      2.05748231692794     -0.14594253224329
  H   -2.88091563600714      2.68641256370815     -0.83252738728522
  H   -4.27538767875035      2.01370773674271     -0.22652028194491
  C   -0.18393973003324      1.44384116735092      0.01967871616497
  N   -0.37222459978666      2.79531828848128      0.09607517762521
  H   0.42222582635163      3.34022766935852      0.38347035719005
  H   -1.23445622423067      3.09654189605983      0.52335941245353
  C   1.10328610068325      0.86989627025101     -0.00744626554343
  C   2.37336427076567      1.45118628881392      0.05502580686208
  C   3.33817756073656      0.42673641643461      0.00270463756425
  C   4.73083287166800      0.55578979797005     -0.01619226248531
  N   5.89440318703856      0.59452777159440     -0.03974773756792
  C   2.66116800980208     -0.82238490004667     -0.08769344544384
  C   1.27507207004978     -0.56460504654693     -0.07105822540201
  C   0.18364743451956     -1.44350184165897      0.01975059911217
  N   0.37197750508397     -2.79496896320175      0.09620450716564
  H   1.23445593928253     -3.09613836723747      0.52302920342227
  H   -0.42230694542717     -3.33984385064768      0.38412372935072
  N   3.26958925336689     -2.05716566151393     -0.14758100534069
  H   4.27494913545497     -2.01340214745101     -0.22873095359760
  H   2.88013407107824     -2.68615896783223     -0.83388648206510
  H   2.61582071490327      2.50133209104647      0.09418454032785
  H   -2.61606652675013     -2.50098684507176      0.09594970701866
