17
Coordinates from ORCA-job ./opt_b97-3c_parallel
  N   3.63609325598409      1.26678025000079     -0.00030479000096
  C   2.68121814330070      0.60598754270247     -0.00032070831461
  C   1.54696684538450     -0.21763787152467     -0.00021567750060
  C   1.52145009391892     -1.62617687824679     -0.00036504286522
  N   0.28278720203308     -2.14269766466081     -0.00023590117375
  C   -0.56511357708444     -1.09275096497955     -0.00000031118070
  C   0.19918233386668      0.19242399875402      0.00003313840624
  N   -0.19611008242725      1.45435025803645      0.00023663280293
  C   -1.45494772903015      1.85876873267727      0.00045400024787
  C   -2.65951293943397      1.14254096425359      0.00050701240335
  C   -2.87859864091494     -0.22214501997363      0.00036551272715
  C   -1.93297893880630     -1.24533685571161      0.00014166027457
  H   -2.28866143996061     -2.26821835556609      0.00006073273867
  H   -3.91475621797129     -0.53639317538604      0.00044127344312
  H   -3.54675431788083      1.76478909643342      0.00068649463753
  H   -1.55994232301129      2.93915578396044      0.00060865618545
  H   2.38775738843313     -2.27097264966924     -0.00056871173104
