18
Coordinates from ORCA-job ./opt_b97-3c_parallel
  N   4.64076915060152      0.93760844002988      0.00128456951380
  C   3.52822266957576      0.60888192631277      0.00116214320747
  C   2.16341967851413      0.20339875430383      0.00091181992969
  C   1.94824925585839     -1.18723493481818      0.00057281995209
  N   0.82144882676545     -1.88409944124201      0.00008627342806
  C   -0.38799010713194     -1.36324747052564     -0.00024440005617
  C   -1.55977891215475     -2.11869703793184     -0.00092725557187
  C   -2.65043689310192     -1.25571907619734     -0.00127955224319
  C   -2.22334994084996      0.09343950859178     -0.00080228511711
  C   -3.06025591422958      1.21983730446181     -0.00108049903212
  N   -3.77152051550103      2.13749604409782     -0.00144242913901
  C   -0.82038777983970      0.10998930786711     -0.00011954814644
  N   -0.10170320482263      1.20873379503390      0.00048903575666
  C   1.22203058309873      1.24934175175205      0.00098291366077
  H   1.63491721225405      2.25124227689708      0.00144379235474
  H   -3.68687058449274     -1.55493529894047     -0.00186569268988
  H   -1.59091072216094     -3.19512399611293     -0.00115673653377
  H   2.84471003511715     -1.79630192707967      0.00070003802629
