22
Coordinates from ORCA-job ./opt_b97-3c_parallel
  N   -4.48182189541230     -0.65386892378429     -0.02586853969373
  C   -3.32405116387898     -0.54286368358298     -0.00084627539083
  C   -1.92296717004728     -0.34252780748549      0.01978035520739
  C   -1.15494953586633     -1.52697546181703      0.00718051551452
  N   0.13602719766578     -1.76531227093075      0.00256803659914
  C   1.09759497599431     -0.84059435415798      0.00487037495936
  C   2.43982676124927     -1.14640428351546     -0.00229720444432
  C   3.17953029915211      0.06815000599992      0.00527155335231
  N   4.52774213727627      0.14143254358180     -0.03028466031026
  H   5.07052038117954     -0.68135014911636      0.15702014049330
  H   4.98061210189394      1.01704606814820      0.15758008843837
  C   2.29795211835033      1.16265982623699      0.01220035544883
  C   0.99395512694322      0.67253603085731      0.01403021824604
  C   -0.15300123404156      1.42762084349123      0.03510058604073
  C   -1.49058340046365      1.00804127797881      0.04023220352241
  N   -2.44192131156607      1.99087016797549      0.11426482568930
  H   -2.17519684040162      2.92298519802246     -0.14368094494907
  H   -3.39918173967012      1.75264429751230     -0.08187605030111
  H   -0.00579116792119      2.50337603873882      0.05771897378304
  H   2.58267467279257      2.20359878369065      0.01699651428453
  H   2.84630255894141     -2.14455022930615     -0.01418122964593
  H   -1.76009298666968     -2.42890082613747     -0.00534915054400
