20
Coordinates from ORCA-job ./opt_b97-3c_parallel
  N   -3.01760134406811     -2.13926104966772      0.00048187027708
  C   -2.18080917590991     -1.33067149807092      0.00982845682361
  C   -1.26857885439993     -0.27259257516144      0.01715723695245
  C   -1.65571371198164      1.09760526371224      0.01553851018387
  N   -2.92926451702237      1.52081987543887      0.04403614743696
  H   -3.67927505829304      0.85891150300086     -0.05174922776792
  H   -3.15090988505101      2.48970370001212     -0.08518208696962
  C   -0.49905611183501      1.90246189429006      0.00914433515132
  C   0.62020885304943      1.08411339445991      0.00606360793391
  C   0.13584238236220     -0.33916555022281      0.01005250471579
  N   0.79070709396492     -1.48288751317472      0.00484271491252
  C   2.11285444411346     -1.62712663054297     -0.00300719609051
  C   3.14472134727232     -0.69517954944348     -0.00570398489949
  C   3.07368517315347      0.69348830368697     -0.00352157547311
  C   1.94609809343967      1.49564484267795      0.00090526635294
  H   2.11260512490974      2.56738725670947      0.00004945462040
  H   4.02353267982887      1.21478120409757     -0.00659852529639
  H   4.14076975772642     -1.12214237564838     -0.01045720714623
  H   2.42544968546414     -2.66712301439582     -0.00697248099558
  H   -0.48948661372363      2.98155269394222      0.01175861937799
