24
Coordinates from ORCA-job ./opt_b97-3c_parallel
  N   -4.49036569796912     -0.86724153216393      0.00138702345285
  C   -3.52476939801587     -0.22014752896623      0.00089585266492
  C   -2.42497035105135      0.64754451028722      0.00027273048065
  C   -2.54074361860635      2.06884847290330     -0.00053336601012
  N   -1.38056146252341      2.70214457367683     -0.00101532570466
  C   -0.42294518206563      1.72038492989665     -0.00056234092283
  C   0.89104656772708      2.06231879258366     -0.00087063724333
  C   2.03650644903144      1.23696744497494     -0.00065030662879
  N   3.21698963992178      1.90010320802459     -0.00091678082579
  H   4.09971297953478      1.42145618521340     -0.00191317455998
  H   3.23387458052684      2.90150308131612     -0.00294293357995
  C   2.06143264662601     -0.17509231414276      0.00002035835494
  C   3.36043743088395     -0.72936385615095     -0.00017256811602
  N   4.43989880513302     -1.16334402415930     -0.00044176128608
  C   0.99891412005969     -1.13101661427189      0.00099177850426
  N   1.36954829892812     -2.43026508113156      0.00202474567806
  H   2.33540291285910     -2.70155412116644      0.00148628902250
  H   0.67998137155740     -3.16077260826221      0.00204502163526
  C   -0.40184414070924     -0.86342392201078      0.00098869593939
  C   -1.20582456601737     -2.03037343923243      0.00182051820796
  N   -1.74795749276934     -3.05801643461740      0.00237689570030
  C   -1.04923323910381      0.37589836258820      0.00028587637127
  H   1.06719793975038      3.13106371469753     -0.00138681429723
  H   -3.47646462250818      2.60942711711351     -0.00074721103754
