19
Coordinates from ORCA-job ./opt_b97-3c_parallel
  N   -5.03388524278230     -0.52831009105433     -0.00301584853729
  C   -3.89051617492093     -0.32942924931560     -0.00185654477604
  C   -2.48899287778040     -0.09052610061011     -0.00059695387089
  C   -1.67054105895683     -1.24162921291255     -0.00140953460060
  N   -0.36119532748697     -1.36240272039036     -0.00067770880861
  C   0.48382422436380     -0.34015868870865      0.00110054690600
  C   0.23838521890267      1.16405124522503      0.00274118308462
  N   1.39937961012964      1.81890829643047      0.00430807006182
  C   2.37272136215429      0.88034743228870      0.00383076957272
  N   3.65221278076403      1.22205712019443      0.00509980381643
  H   4.37904062110700      0.52811032728586      0.00476016155670
  H   3.90183219000336      2.19582405992404      0.00644287718257
  C   1.86635825288404     -0.46169385839170      0.00188301082827
  C   2.65812067937759     -1.61322331129402      0.00103845774963
  N   3.39164619033981     -2.51502312870632      0.00052572957975
  N   -0.90447692514466      1.82761472628297      0.00276870861264
  C   -2.09787097323492      1.25882926832956      0.00128116148311
  H   -2.91687756043318      1.97057741343536      0.00157691621448
  H   -2.20270197928605     -2.18696268261278     -0.00288749905530
