17
Coordinates from ORCA-job ./opt_b97-3c_parallel
  N   4.65387773356094      0.90565737384094      0.00125644887191
  C   3.53817098259339      0.58824680475553      0.00076335829455
  C   2.16784695806421      0.20385098052956      0.00022791895092
  C   1.23944458750807      1.26885305529589      0.00080308917544
  N   -0.07834874497277      1.24862229135158      0.00065375148172
  C   -0.80813196336487      0.14946816097579     -0.00005478439388
  C   -2.20477757551841      0.11371641037222     -0.00009954834591
  C   -3.08537463675746      1.20474073856221      0.00045748179209
  N   -3.83352003763918      2.09217379810906      0.00066678113523
  C   -2.55351777587160     -1.25905837959233     -0.00082858888906
  N   -1.50701526423884     -2.09445583518287     -0.00130570779594
  C   -0.40472474808155     -1.32478298738608     -0.00090169025446
  N   0.79101631261992     -1.86524630075864     -0.00122803440283
  C   1.92667387546620     -1.17854761209070     -0.00074940084079
  H   2.81337759113023     -1.80225305227113     -0.00112379444015
  H   -3.56278716506406     -1.64412824510566     -0.00100963549986
  H   1.67065796676577      2.26341587319466      0.00149476906099
