19
Coordinates from ORCA-job ./opt_b97-3c_parallel
  N   -1.57869686085287     -3.30447607739015     -0.00081329866177
  C   -1.41838600814293     -2.15473676661887     -0.00028753427807
  C   -1.19480854847596     -0.75073084413931     -0.00020289608152
  C   -2.34222315453261      0.05075447935297      0.00733195100831
  N   -2.51139651502854      1.36700977643873      0.00972594266118
  C   -1.56076354957413      2.29357137442291      0.00510538761240
  C   -0.17101309178865      2.21779474154652     -0.00323492195163
  C   0.61784859905104      1.08231410011393     -0.00906939510695
  N   1.95607886579771      1.12744367072916     -0.01682236003090
  C   2.36745533501791     -0.16728834934641     -0.02040361301743
  N   3.67375066544815     -0.44931829481154     -0.02934408309205
  H   4.33690627779133      0.30429763452254     -0.02731343604560
  H   4.01113992385180     -1.39248366620896     -0.02569135913925
  C   1.29243023718384     -1.09414189670312     -0.01504230572857
  C   0.14864805058097     -0.33006629267517     -0.00763619449984
  H   1.35698375706672     -2.16944575575498     -0.01659885404156
  H   0.36620046012133      3.15824548129779     -0.00548301846948
  H   -1.95968697872654      3.30427644359241      0.00856439857900
  H   -3.27624923428857     -0.50243270936839      0.01219978608375
