20
Coordinates from ORCA-job ./opt_b97-3c_parallel
  N   3.01869476932799      2.17419032019580     -0.02519813279235
  C   2.22127134946569      1.32542913424629     -0.03253704363462
  C   1.31307990522326      0.26537995866508     -0.03839207954053
  C   1.69071365807746     -1.11219368731156     -0.04964594338764
  N   2.96163668858259     -1.54407019990516     -0.09343552532426
  H   3.17587101849804     -2.51517869236162      0.03155125511887
  H   3.71806121998977     -0.89099474752422      0.00926946255558
  C   0.52698585110191     -1.90246831411517     -0.03918121539602
  C   -0.58031612001165     -1.06340538553086     -0.02106348901254
  C   -1.91667334680216     -1.44397364388672     -0.00595788314287
  C   -3.04989338859583     -0.64313383089728      0.01422407456477
  N   -3.21567734503961      0.67945171024158      0.02679569386029
  C   -2.25022269515407      1.58776542561350      0.02100630989435
  C   -0.85908403864003      1.47866436317696      0.00012218107313
  C   -0.08889997780153      0.33434252736463     -0.01980756487565
  H   -0.32021633635150      2.42011789645872     -0.00081716658257
  H   -2.62461328994893      2.60777127885826      0.03470355072686
  H   -3.99115983143181     -1.18587897717580      0.02218946499139
  H   -2.10793224731804     -2.51206099837537     -0.01012703232124
  H   0.50046940552846     -2.98059257633698     -0.04894493847494
