25
Coordinates from ORCA-job ./opt_b97-3c_parallel
  N   4.75715608330037      1.05165410553767      0.23469704227026
  C   3.74583287217354      0.48444251991830      0.13072081994176
  C   2.48469911823440     -0.14204699855707      0.01419538796093
  C   2.52027142784169     -1.53600724732751     -0.14995987942563
  N   1.60177565377497     -2.48197494721579     -0.20199514087620
  C   0.28539560200070     -2.26263131920249     -0.08149794279609
  C   -0.44174073405067     -1.10521632626414      0.00494205927224
  C   -1.86767662316671     -1.07173699822642      0.08827842842868
  C   -2.27360447066510      0.27139117238777      0.00394811214357
  C   -3.59408922253466      0.72608086111422     -0.00043354401714
  N   -4.69291897272065      1.11215824218505     -0.00118721939832
  C   -1.12066398543733      1.10162987380802     -0.10768013053523
  N   -1.17398491210942      2.48762375365833     -0.19379779985464
  H   -0.66026715149829      2.86488254997892     -0.97721026760165
  H   -2.11834084815975      2.84488389734286     -0.20446330115379
  C   0.01920159747434      0.29719542302173     -0.06520812542882
  C   1.34441581434622      0.73083729909102      0.06948378614582
  N   1.58895128239616      2.04708584920985      0.23988887911093
  H   2.52624629521949      2.35075426287963      0.44535822346374
  H   0.83237709787523      2.64591517861034      0.53139823489761
  N   -2.71489886925027     -2.13366794658434      0.12755415628931
  H   -3.67721266200154     -1.93894392939806      0.34567481397166
  H   -2.37753469991900     -2.99583767066080      0.51504517043982
  H   -0.28437022324838     -3.18913061500749     -0.07288970022383
  H   3.53156671492337     -1.92737438609952     -0.22524913492589
