21
Coordinates from ORCA-job ./opt_b97-3c_parallel
  N   -4.47818503096724     -1.00645411864974     -0.00610245032657
  C   -3.32001096747594     -0.90949955024455     -0.00361294791671
  C   -1.91509299075064     -0.72266126243584     -0.00046793540258
  C   -1.17040562376391     -1.91179338332896      0.00136339407123
  N   0.11785232568307     -2.18943258102962      0.00427756542227
  C   1.07647071408975     -1.27726824370757      0.00626147410417
  N   2.36356724189701     -1.61250083442622      0.00916056298352
  C   3.00949314691943     -0.41632498072704      0.01041536343000
  N   2.24422761291122      0.70942571925610      0.00856199527425
  C   1.00274523269889      0.23252840998423      0.00587654953832
  C   -0.12238993407401      1.05255113949120      0.00326180414839
  C   0.10460787844550      2.45076369654096      0.00354830840323
  N   0.17912550108539      3.60974082148817      0.00326152113591
  C   -1.48270258983398      0.63756584324615      0.00030915997286
  N   -2.42540018067048      1.59478269995839     -0.00191974327833
  H   -2.17339652215839      2.56775969842374     -0.00154337906124
  H   -3.40221271265848      1.35951239018161     -0.00406634060099
  N   4.33397803166837     -0.34736709267801      0.01328009153050
  H   4.78844600515361      0.54751246716217      0.01440100669907
  H   4.87858450491780     -1.19011796828778      0.01485758545920
  H   -1.79405471131700     -2.80077146831739      0.00009421311351
