25
Coordinates from ORCA-job ./opt_b97-3c_parallel
  N   -3.75495089255134     -2.45131179970792     -0.00798724370050
  C   -3.08339959465541     -1.49728861372205     -0.00814136495692
  C   -2.31070645259095     -0.34023660227840     -0.00929530329370
  C   -2.83046609368648      0.98652306371115     -0.00671859079160
  N   -4.13585898044269      1.27665423362146     -0.00766296290889
  H   -4.82365838759113      0.54458280538865     -0.01290432145065
  H   -4.45945757332060      2.22498439469010     -0.00505332781059
  C   -1.76664191985557      1.91177114922202     -0.00271767221249
  C   -0.56873102735595      1.21380432163563     -0.00642185426824
  N   0.61392385200182      1.80961605015953     -0.00892515521904
  C   1.81264812646843      1.24846904334931     -0.02615156508084
  N   2.82211338430229      2.16260575881140     -0.10178246140812
  H   2.54993630118290      3.11658952291124      0.05100751034638
  H   3.77127482499291      1.90914633102265      0.10507112648792
  C   2.19947156088627     -0.13354970634001     -0.00746765701279
  C   3.58480587108092     -0.38489363692881     -0.01553535826243
  N   4.72906649664748     -0.60421543580025     -0.02018999618597
  C   1.37336465969721     -1.27986729392259      0.02173168452022
  N   1.97617800659269     -2.49812157016629      0.09380815977842
  H   2.96680553345582     -2.58559317973866     -0.05009701442109
  H   1.42873507228973     -3.32143741406323     -0.07150819738895
  C   -0.03507564301465     -1.30211185806117      0.01188565968099
  C   -0.90282398990668     -0.25058481814450     -0.00583665874578
  H   -0.48654258319963     -2.28836657867002      0.03154609076310
  H   -1.85379141942743      2.98538627982079     -0.00436000545842
