20
Coordinates from ORCA-job ./opt_b97-3c_parallel
  N   -3.47647634114451     -2.27375211723082     -0.00052661309460
  C   -2.79322397530199     -1.33554922163305     -0.00046190459612
  C   -1.93173956005276     -0.20562671680507      0.00017317801681
  C   -2.54807896407114      1.05414353134093     -0.00055857369611
  N   -2.04137646491528      2.27638506665841     -0.00025482854455
  C   -0.75485290126763      2.61813383909897      0.00090690704237
  N   0.38782213361244      1.93657497046706      0.00217850288165
  C   0.50097033388135      0.62358803080039      0.00249560577082
  C   1.73327534461532     -0.03772663933148      0.00385678429665
  C   3.01601297512427      0.51698674250592      0.00512099533763
  N   4.12253685307058      0.87452613627584      0.00647091103909
  C   1.48363224034928     -1.44452386782386      0.00371932057015
  N   2.43646165697902     -2.37315763911156      0.00477319895202
  H   3.40771131021349     -2.11153753559044      0.00578461051625
  H   2.21447751285392     -3.35157885300055      0.00464953533756
  C   0.08527956362335     -1.67198787840239      0.00230016036695
  C   -0.55279393397374     -0.45341304366629      0.00153174949807
  H   -0.39226814356971     -2.63846951522429      0.00192843584877
  H   -0.60325282919371      3.69218732205606      0.00082618395802
  H   -3.63362333483259      1.02975196661618     -0.00155548520138
