19
Coordinates from ORCA-job ./opt_b97-3c_parallel
  N   -4.11028243531870     -1.01838436360827     -0.05478821329558
  C   -3.12336647405523     -0.40308058188847     -0.03334545798281
  C   -1.91974526751731      0.30968741090147     -0.00805463718185
  C   -1.73809948348236      1.70697555902165      0.01038838791865
  N   -0.45616662432862      2.09106367138098      0.03089843560314
  C   0.28235606246714      0.95666853045163      0.02800141121938
  N   1.59187847169400      1.03298402113462      0.03382115514434
  C   2.46446972444872      0.02564819060895      0.03559080157417
  N   3.76504119153955      0.43965052544209      0.08110173666947
  H   3.92092442138683      1.41913670754615     -0.07978550590905
  H   4.50523639638650     -0.18663772985835     -0.17515638542446
  C   2.23485103775546     -1.37221592773121      0.03534393917173
  C   1.04634844126288     -2.05787783556075      0.01425039257680
  C   -0.25995099204666     -1.56227739863615     -0.00202251374614
  C   -0.62244093574496     -0.24013769206560      0.00302657102068
  H   -1.06039448573895     -2.29284132023049     -0.01829003164599
  H   1.13543245834203     -3.13718094402528      0.01234705840661
  H   3.12927386350876     -1.98459107231581      0.05782992022105
  H   -2.53177327845908      2.44009002663285      0.00844748795987
