20
Coordinates from ORCA-job ./opt_b97-3c_parallel
  N   -4.05981608710463     -1.19059280528594     -0.07391604451270
  C   -3.12457899317031     -0.50058417356336     -0.04803291809225
  C   -2.00547327132587      0.33832776486316     -0.01510273857288
  C   -1.99122982979049      1.75040614692285      0.02642552038628
  N   -0.77548218228255      2.30435649288583      0.05726049627104
  C   0.10575056251490      1.27660020031492      0.03754804650419
  N   1.38591993221528      1.49466295010216      0.05004810998876
  C   2.33756317292929      0.53475951510112      0.02670775053160
  N   3.59013990449296      1.07009402160216      0.07050445073264
  H   3.64984235725422      2.06207966056888     -0.07483984080010
  H   4.39032709045130      0.51986814276065     -0.17927033610854
  C   2.21634917443383     -0.85344718807589     -0.00143239284458
  C   1.06593549480290     -1.64943763983341     -0.02094702377486
  N   1.22494225418351     -3.00204237792878     -0.07562714153149
  H   2.09912866913692     -3.42231989201207      0.17877974329412
  H   0.39435656669086     -3.54732660055689      0.07371878101855
  N   -0.22824705446594     -1.28682419741296     -0.02877256090133
  C   -0.65577662541066     -0.05360243069970     -0.00966537040066
  H   3.15445665571076     -1.39816551246380     -0.01047820824331
  H   -2.87396865996630      2.37473286671108      0.03389270785550
