23
Coordinates from ORCA-job ./opt_b97-3c_parallel
  N   4.40475837005524      0.24793564743836      0.22717476670725
  C   3.29702441475162     -0.09792612210121      0.12630284520110
  C   1.93378705928963     -0.44558947428269      0.01444071050957
  C   1.66756818669787     -1.82002081041833     -0.12929594081549
  N   0.57410543069459     -2.55635559543868     -0.17421302080806
  C   -0.67318266476514     -2.06318374923229     -0.07336968663457
  C   -1.12436148561299     -0.77691606366316     -0.01298638237373
  C   -2.49616897492268     -0.36411595784714      0.06442546935369
  N   -2.62184854038300      0.96554182105587     -0.00522842263389
  C   -1.36851807764132      1.47639887671449     -0.10811483798561
  N   -1.19523463196265      2.85033897766046     -0.18844170742276
  H   -0.62062772654766      3.14244104298580     -0.96602549133588
  H   -2.08880506375836      3.31946046944668     -0.22154757580072
  C   -0.37832429497719      0.48876788430215     -0.07828984648409
  C   1.00056237434749      0.64891552919160      0.05379959605460
  N   1.50896911124131      1.89075546652289      0.20173378149415
  H   2.48717242816262      1.99749499239607      0.41366457319372
  H   0.89105930762475      2.63057916730585      0.49552808566448
  N   -3.59818380618797     -1.15961051952325      0.11157187816010
  H   -3.50520989742850     -2.06934076565352      0.52560440338754
  H   -4.45226853440198     -0.68154178034742      0.34338578527833
  H   -1.42857672863687     -2.84603014948240     -0.05425041338034
  H   2.57485445986373     -2.41614594022707     -0.19217629332136
