21
Coordinates from ORCA-job ./opt_b97-3c_parallel
  N   -3.88586458321343     -0.79012992783954      0.00156077925075
  C   -2.90289988132725     -0.17396251340651      0.00102732113311
  C   -1.74525531886112      0.65066045285215      0.00039855653664
  C   -2.01316236169381      2.03660207301195      0.00260924701613
  N   -1.21832196404560      3.08792242483373      0.00132217984298
  C   0.11593454098310      3.08781371515959     -0.00138745693978
  N   1.03457007516462      2.13288658596339     -0.00125492491144
  C   0.80639635060022      0.83190559803031     -0.00079076745867
  C   1.84639696705116     -0.10483679550833     -0.00073021959265
  C   3.22388323087673      0.13939554642502     -0.00047857030348
  N   4.38160772345838      0.23929289486432     -0.00037740238876
  C   1.28000993371299     -1.40636348145607     -0.00186794261621
  N   1.95071449731266     -2.54743296306218     -0.00241656744685
  H   2.95658669164976     -2.55454756734591     -0.00191055436448
  H   1.46705494338507     -3.43013494178658     -0.00342558030142
  C   -0.14844348757500     -1.29226166002036     -0.00242517210276
  C   -0.95415500116452     -2.43768771634027     -0.00347486772914
  N   -1.48446305038275     -3.47227764678498     -0.00455269291100
  C   -0.48052223679163      0.06112599514241     -0.00143157681647
  H   0.53971660726642      4.08595895974796     -0.00347916623397
  H   -3.06979272940600      2.28588796371989      0.00555556493746
