19
Coordinates from ORCA-job ./opt_b97-3c_parallel
  N   3.00924241181395      1.17106517315852      0.12457293181812
  C   1.83697995220821      0.43816713958753      0.05302945742630
  N   2.02094008640503     -0.87307384217103      0.03482057074107
  C   1.10054644656228     -1.83472025464651      0.02643954632812
  C   -0.28492470099550     -1.79995328921642     -0.00064169778183
  C   -1.11416900347850     -0.68882939098349     -0.00886883947637
  C   -2.50062163602802     -0.65740465971931     -0.03605451540407
  C   -2.91693843116285      0.69169121499653     -0.01953890303857
  C   -1.81766019529019      1.53646934639287      0.01874547042633
  C   -0.65443825567889      0.73820477614780      0.02490215901620
  C   0.63413820781973      1.18826767130333      0.06218264754058
  H   0.75615102468006      2.26692205419462      0.10615591917503
  H   -1.83343732641852      2.61443746028664      0.03877958113827
  H   -3.94750848324033      1.01659137613584     -0.03346552619337
  H   -3.14664757250886     -1.52067991799682     -0.06117392091468
  H   -0.77300090442475     -2.76879341845727     -0.01883561078324
  H   1.53790092852294     -2.82898358944670      0.02914685478317
  H   3.83031127323272      0.63467396425563     -0.10047661684751
  H   3.00195090168149      2.09774301327824     -0.26441667445355
