17
Coordinates from ORCA-job ./opt_b97-3c_parallel
  N   1.55253669603492      3.33607991410008      0.00008222335717
  C   1.34212215406277      2.19542370080105      0.00016939408987
  C   1.13556238021577      0.79081416628490      0.00026379940469
  C   -0.17812455799142      0.31020810787956      0.00171569776246
  N   -1.26700930449371      1.05870051613113      0.00327070240142
  C   -2.27639086604942      0.13244767599620      0.00523108117669
  N   -1.91918649817505     -1.17651485099803      0.00498221067408
  C   -0.58843079715838     -1.14058697428641      0.00268457537765
  N   0.14519043432031     -2.24329898778968      0.00121342608469
  C   1.46951620913296     -2.26437119228828     -0.00109710567285
  N   2.42894195427161     -1.33388922668464     -0.00145170629569
  C   2.28101847756640     -0.02134107207580     -0.00061352348622
  H   3.22048297412894      0.52355078336974     -0.00080371011855
  H   1.87329958189282     -3.27172829756472     -0.00281112764514
  N   -3.54569991160973      0.51069508046936      0.00723731326514
  H   -3.77646465898279      1.48773237727054      0.00745266036321
  H   -4.27456659976599     -0.17934207801501      0.00885982276139
