18
Coordinates from ORCA-job ./opt_b97-3c_parallel
  N   -3.04446193597299     -1.11649385439481      0.11837491035000
  C   -1.85207139679035     -0.43046396885560      0.05098734880198
  N   -2.00167576495917      0.89327974780776      0.03337966568025
  C   -1.06287523511633      1.82735388903311      0.01974346858829
  C   0.32642005895970      1.76808486278049     -0.00820625230246
  C   1.11565263232094      0.63431959701074     -0.01422476478207
  N   2.45486148431646      0.66287492381107     -0.04169658531712
  C   2.84784822563837     -0.64163662757567     -0.02648829991251
  C   1.80004990184257     -1.54889002276024      0.01238231196744
  C   0.62599168570283     -0.77626671891742      0.02000818522225
  C   -0.67362558493051     -1.20839788951984      0.05828419986155
  H   -0.81975149174364     -2.28373753709048      0.10078475397197
  H   1.86382462840864     -2.62455503264553      0.03139556990437
  H   3.90268333934403     -0.87857125376208     -0.04435631977908
  H   0.85476189868797      2.71321020244958     -0.02862139911915
  H   -1.47685264307238      2.83182178939857      0.02105893604036
  H   -3.07227372372150     -2.06207039521699     -0.21848634530642
  H   -3.85484940261461     -0.56092181245264     -0.09547134406965
