22
Coordinates from ORCA-job ./opt_b97-3c_parallel
  N   -4.35829202831420     -0.07362938935492     -0.08145919467867
  C   -3.19443749347932     -0.03936113789601     -0.03455338387975
  C   -1.78849070100200      0.00922896451366      0.01240450072925
  C   -1.12422205747438     -1.26067106319476      0.03853493667018
  N   0.16926946867258     -1.56713501160937      0.02591856194657
  C   1.18142310410392     -0.72743981062263      0.01942178824697
  N   2.44626353392361     -1.15260718221047     -0.00188944450209
  C   3.16822780187916      0.00060491838338      0.01340149564534
  N   4.50053710577361     -0.03101845964019     -0.00599311275053
  H   5.02057661090102      0.82453209662504      0.04617726246721
  H   4.97644016565306     -0.91314705689399      0.01086520223213
  N   2.49148549479535      1.17308134115348      0.04246725782660
  C   1.20742678260850      0.77998284696123      0.04423114383424
  C   0.14095198196374      1.63753254157766      0.05840723708975
  C   -1.22383661064582      1.31007827518724      0.03931013245419
  N   -2.08265074692663      2.36527656012392      0.07769945773588
  H   -3.06515877019820      2.22921213072922     -0.08262107519519
  H   -1.72646936203149      3.28549688578068     -0.09795175293023
  H   0.38958516645665      2.69179977636594      0.08358808390618
  N   -1.91280562674634     -2.36362570159804      0.09069495182552
  H   -1.44819633814554     -3.24605405468074     -0.02015428905747
  H   -2.90804658786726     -2.31989413720035     -0.02871916511610
