21
Coordinates from ORCA-job ./opt_b97-3c_parallel
  N   -2.63256322080323     -2.30699810067448      0.11945156105878
  C   -1.74336280662473     -1.25500668837905      0.04592720502399
  N   -0.47157706805669     -1.65285050579748      0.06447847757444
  C   0.56907865823962     -0.83633386455874      0.04940933749432
  C   1.89058753731155     -1.23024083113522      0.07657828908493
  C   2.64902762608986     -0.03873054201310      0.02509645247580
  N   3.98502112807414      0.05773618865998      0.01206272680072
  H   4.39518549791249      0.97290184058215      0.06805726744190
  H   4.56589092312912     -0.74114053478135      0.18035528310001
  N   1.91033073469608      1.09731055665909     -0.03639725566927
  C   0.63120739626817      0.70080499612256     -0.02394733861793
  N   -0.34062335328895      1.57482070308904     -0.05613874181109
  C   -1.65002955323182      1.26676040927183     -0.03591521593945
  N   -2.43775703291763      2.39155677356169     -0.11134273034834
  H   -3.38071539271628      2.34054081128074      0.22941812066050
  H   -1.95001203671986      3.24788386162364      0.08708153874374
  C   -2.29326395120288      0.03318340553180      0.00892832061544
  H   -3.37725663783681      0.07484728164968      0.01543374582818
  H   2.25395298008046     -2.24332537924421      0.12366345864118
  H   -3.55168331366156     -2.17082311547817     -0.26214169927061
  H   -2.21747242104100     -3.19908226237036     -0.08860672338729
