18
Coordinates from ORCA-job ./opt_b97-3c_parallel
  N   3.25596919273529      1.37587158371280      0.07164590835769
  C   2.14007297232556      0.59930100865114      0.03258763392719
  N   2.41224261838621     -0.71152895838068      0.01666080728964
  C   1.55675378176463     -1.72358865270392      0.00632007246163
  N   0.23605098010018     -1.85488363924606     -0.00636987498778
  C   -0.60685828513844     -0.83115433797023     -0.00132457581648
  N   -1.92636410289650     -0.99325829553658     -0.01460779969472
  C   -2.40538345034582      0.28459760560542      0.00065071755477
  N   -1.50696414738989      1.29577104185540      0.02312598111963
  C   -0.32968353484941      0.65109278151680      0.02256307519526
  C   0.89610779219022      1.26080624079923      0.04267977524470
  H   0.89545935230455      2.34430630084833      0.06823009519641
  N   -3.71726984588568      0.51474953816607     -0.00958471563882
  H   -4.35691867861857     -0.25715285645695     -0.00738233805623
  H   -4.06067143647368      1.45615363181399      0.02149522204053
  H   2.06677617478757     -2.68313766594825      0.00175180095596
  H   4.13315050779448      0.91083854013968     -0.07941767449723
  H   3.20570261980932      2.35843851663377     -0.12137989895215
