20
Coordinates from ORCA-job ./opt_b97-3c_parallel
  N   -1.91889736049199     -2.43589834615107      0.07181824307767
  C   -1.44657369824471     -1.14847654436626      0.00079577532026
  C   -2.25042323285438      0.00061873070135      0.00137428900540
  C   -1.44592226494287      1.14925847888492      0.00098687358773
  N   -1.91759686085629      2.43694998481439     -0.06946471586278
  H   -1.29172079844270      3.15511192130660      0.25176434216413
  H   -2.85418151475914      2.57505039867781      0.26990860667073
  C   -0.08982903473036      0.74489871557103     -0.00495440876223
  C   -0.09024505007593     -0.74488618488882      0.00511000472919
  C   1.01745424691557     -1.54359616876855      0.02142123315979
  N   2.32702477439966     -1.23753500971253      0.01675649029986
  C   2.82160431084000     -0.00081509608935     -0.00163079102619
  N   2.32770260807263      1.23618471238775     -0.01952322724423
  C   1.01829985294101      1.54298380815556     -0.02266390373760
  H   0.84634146268708      2.61871865734797     -0.04961125440933
  H   3.90968289469270     -0.00112229293669     -0.00220329025366
  H   0.84492351956511     -2.61923651013937      0.04848713059104
  H   -3.33140970180484      0.00091896212960      0.00200892028190
  H   -2.85596764802456     -2.57346211575031     -0.26642892772273
  H   -1.29382003728597     -3.15441969917405     -0.25015718296896
