20
Coordinates from ORCA-job ./opt_b97-3c_parallel
  N   -2.70183650125045     -2.18816070216086      0.10767305632774
  C   -1.76223187298022     -1.19659696513569      0.03512552936650
  N   -2.28391877675389      0.02138446403320     -0.00099810571002
  C   -1.64255034958795      1.19523343284170     -0.02509264366179
  N   -2.48763695854366      2.25934566439260     -0.09882826379569
  H   -3.46043935756841      2.10401565125213      0.08731136769115
  H   -2.09725351049976      3.16940017956268      0.06044453302079
  N   -0.35387087318098      1.56274267933529     -0.01605661526989
  C   0.65923790862366      0.72542234981384      0.00051920941403
  N   1.92900290541606      1.13891381194663      0.00521415732682
  C   2.63904053154887     -0.02100931581802      0.02413326558699
  N   3.97317509207816     -0.00077013150348      0.01967610807056
  H   4.48220769779322     -0.86043784276900      0.10251415821241
  H   4.45355376336191      0.87680887072840      0.08172893269123
  N   1.95454359972830     -1.18922148461027      0.03535417683671
  C   0.67338089290724     -0.78621813241883      0.02255934006436
  C   -0.41325399570869     -1.61506642898837      0.04352163448350
  H   -0.21307798137396     -2.67900915646289      0.08132315261434
  H   -3.64494034533039     -1.91231276242768     -0.10137846997726
  H   -2.44355378377903     -3.12643844061136     -0.13613928289249
