21
Coordinates from ORCA-job ./opt_b97-3c_parallel
  N   -2.29126649590367     -2.23875255750856      0.09959897264287
  C   -1.37268803884901     -1.20035489345647      0.03521515217834
  N   -1.93743091797009     -0.00053199617829      0.00877559333982
  C   -1.37287939064111      1.19932594977081     -0.02009599076497
  N   -2.29179187986553      2.23766503201749     -0.08054786163549
  H   -3.21910594565703      1.96532552111688      0.19898941746477
  H   -1.99832859755147      3.12210193664906      0.29641128125139
  C   -0.01497869489264      1.56622978242053     -0.06252456531267
  C   1.08880865581590      0.75084546823261     -0.03433663812522
  C   2.43093509772245      1.14877468895042     -0.06049184297845
  C   3.22621657559860     -0.00037827959282     -0.00230446839582
  C   2.43125962281977     -1.14957932852102      0.05930016524280
  C   1.08901003427588     -0.75172990341243      0.03889790722027
  C   -0.01459646278710     -1.56717856939355      0.07181001905160
  H   0.18339765140600     -2.63257572446581      0.13826472172366
  H   2.78020481662661     -2.16869956841791      0.10783317888175
  H   4.30728405715591     -0.00034541482796     -0.00462181947658
  H   2.77961106429983      2.16791587754800     -0.11051092645819
  H   0.18266212249160      2.63164001219508     -0.12984190772637
  H   -3.21978417635890     -1.96648026570684     -0.17597456215355
  H   -1.99935533463599     -3.12316998191925     -0.27860508776999
