19
Coordinates from ORCA-job ./opt_b97-3c_parallel
  N   -3.55136437370196     -0.06500404667406     -0.07902830662902
  C   -2.19891782467989      0.03504968973704     -0.02578799857342
  N   -1.44312271364585     -1.08750999219114     -0.02347827167289
  C   -0.16174489405773     -0.67264753431637     -0.01582615367540
  C   -0.10344147852877      0.80966285635387     -0.01153916186734
  C   -1.43019891000164      1.21738481045811     -0.02003169747122
  H   -1.79488766216686      2.23239089373855     -0.02888797041853
  C   1.03606038329444      1.61272776974182     -0.00317017113028
  C   2.36134791036295      1.22432435123916      0.00679141589523
  C   2.90601580610778     -0.06009505244324      0.01301654202915
  C   2.25881842390857     -1.28428267072156      0.00768699989706
  C   0.89663758077162     -1.56371350490211     -0.00533896655359
  H   0.60577579284054     -2.60729420753327     -0.00978067690410
  H   2.90699320576001     -2.15278403192714      0.01385004524273
  H   3.98877906956163     -0.10447208317853      0.02198091491062
  H   3.08277059374990      2.03314122143735      0.01192424296197
  H   0.85452545287141      2.68246611684582     -0.00462511111084
  H   -4.09955704594175      0.71975255190272      0.22208732147802
  H   -3.92975321990438     -0.97007947486701      0.14149232339188
