23
Coordinates from ORCA-job ./opt_b97-3c_parallel
  N   -2.72246500436197     -2.31579818822141     -0.10562622137631
  C   -1.81461710710333     -1.26084706622575     -0.02715072498084
  C   -0.45589084618840     -1.61881917188789     -0.06530186010854
  C   0.63870249161304     -0.79239312342742     -0.03444903203168
  C   0.62792353320240      0.72481424715594      0.03244593986568
  N   -0.39247920553314      1.57211880090620      0.04186606326129
  C   -1.68305130224773      1.26454529615356      0.03875126989098
  N   -2.50719649007854      2.38582096088545      0.11651040201997
  H   -3.39721929776602      2.31388165968119     -0.34694183885257
  H   -2.01116144561294      3.23164963286037     -0.11194390301973
  C   -2.33772721730011      0.02280982423436      0.02875921560663
  H   -3.42078199182023      0.08051367354571      0.07497299616492
  C   1.95148166453657      1.12834870293089      0.05359916353873
  C   2.77245461399049     -0.02403197125840     -0.00153144546097
  N   4.13181777028851     -0.00461488311573      0.04392302350582
  H   4.59486287424373      0.85819377481369     -0.17900253773270
  H   4.62291186366711     -0.82917575612588     -0.25240339878187
  C   1.97796060436449     -1.18166082644691     -0.05465142372666
  H   2.34041459383484     -2.19753048045362     -0.09598987768460
  H   2.28544683566122      2.15216873496490      0.10194183179889
  H   -0.24833990473855     -2.68353817413126     -0.12390938735548
  H   -2.37961414362140     -3.19636463121247      0.23963973616625
  H   -3.64255367983004     -2.11539728342551      0.24886944779283
