20
Coordinates from ORCA-job ./opt_b97-3c_parallel
  N   2.70182601907617      1.41730110602967      0.06544299706938
  C   1.83814377435318      0.32879099434192      0.00153483080956
  C   2.22989314133782     -1.02165339367421      0.01777566288349
  C   1.10420125906958     -1.84460244113778      0.01837891839676
  C   -0.04211131161161     -1.04304131104280      0.00091659310594
  C   0.43101992003134      0.37859290762836      0.00396852157911
  C   -0.34937654264050      1.51505063406329      0.03169968241796
  C   -1.73555352545694      1.63289265934267      0.02715403956561
  C   -2.68981380083325      0.62009070311010     -0.00857494149067
  C   -2.52860532000799     -0.75627582857142     -0.03280556942487
  C   -1.34218000107081     -1.49270320584010     -0.01912525933188
  H   -1.45806133272468     -2.57226983877254     -0.02501473631906
  H   -3.44187313576897     -1.33791705851186     -0.05455429971774
  H   -3.71942827517522      0.96193064144428     -0.01360207583705
  H   -2.12221434282893      2.64384477894124      0.05589604011301
  H   0.18551849340925      2.45966882773813      0.07581483377039
  H   1.10803397543110     -2.92332160428085      0.01726825219910
  H   3.25570012923721     -1.36299211278716      0.02820153910632
  H   2.36780280123368      2.23654420473444     -0.41700238187824
  H   3.63684593693959      1.20107020044464     -0.24084151681714
