24
Coordinates from ORCA-job ./opt_b97-3c_parallel
  N   -3.78066448590779     -0.39178998677370     -0.10062549059555
  C   -2.42948721272412     -0.08278708743093     -0.02983902870331
  C   -2.11967925202170      1.29094975966918     -0.01980092068928
  C   -0.87650524391161      1.87520599995839     -0.02297080964581
  C   0.38451647421805      1.29379236459095      0.00188658123793
  C   1.58661633463723      2.02621558349365     -0.02396444864111
  C   2.65247701168304      1.13695425990059      0.03175828187823
  C   2.15055761033887     -0.17531751703049      0.08379419295150
  N   2.93489799204730     -1.36371574150012      0.13764160432990
  H   2.97938589307872     -1.73546585226367      1.07944720678397
  H   3.88340489915582     -1.17237657434888     -0.15286239232245
  C   0.74256821111237     -0.12407509896928      0.05081874022164
  C   -0.14733110501920     -1.21616757029288     -0.02165344292412
  N   0.39694667951773     -2.47560718553183     -0.04206807774800
  H   1.38022443468089     -2.52416569742145     -0.28666656593100
  H   -0.18140089864809     -3.21268186231557     -0.40465806625906
  C   -1.54903447003503     -1.15926563115383     -0.04042555988263
  H   -2.02957906417249     -2.13276341963749     -0.07375162852253
  H   3.70188871557483      1.39619783130316      0.04791752076774
  H   1.65005460160684      3.10291159207170     -0.06399071508477
  H   -0.87353007426304      2.96070784190194     -0.04452580749821
  H   -2.96903326194108      1.96397561930462     -0.04129723173226
  H   -4.40740379223363      0.32154481392793      0.22952653973891
  H   -4.04192579737397     -1.30835321675200      0.21984568447020
