25
Coordinates from ORCA-job ./opt_b97-3c_parallel
  N   -4.59956006908673     -0.00024119581921      0.03447816475335
  C   -3.43409259551801      0.00006047416210      0.02273042646207
  C   -2.03818461373921      0.00030109624072      0.00890612721895
  C   -1.21838826579262     -1.15760171774967      0.02566089261222
  N   -1.70207399772351     -2.44567477851344     -0.02083434179157
  H   -2.67040749857973     -2.53887525086251      0.24124827251739
  H   -1.13084443709343     -3.13785388765808      0.43349569708638
  C   0.12316252713661     -0.74216044975459     -0.00847965989009
  C   0.12290896176587      0.74301426349889     -0.01544763104638
  C   -1.21923903113611      1.15822033105919     -0.02382209072164
  N   -1.70165015881449      2.44654277805681      0.03133977138066
  H   -2.67536503056943      2.53918672784460     -0.21032090730050
  H   -1.14056213985644      3.13723078500859     -0.43776719929668
  C   1.22765474804503      1.56784839266719      0.02037645815494
  C   2.57823035492666      1.26279168416366      0.02920034761034
  C   3.19841201848468      0.00108877765761     -0.03725958924636
  N   4.56854216353670      0.00333777785926     -0.09889850085601
  H   5.05232731127756     -0.85086960761542      0.11212371076946
  H   5.05241438859948      0.83711022267529      0.18205116557868
  C   2.57773374610947     -1.26116972758024     -0.09129029231612
  C   1.22758573091077     -1.56649970080848     -0.06546552579423
  H   1.01761232525636     -2.63129408740240     -0.10740418728947
  H   3.25036306828336     -2.10788427858505     -0.15980512960860
  H   3.25142822710235      2.11102085770981      0.06681621726733
  H   1.01764216877477      2.63224048874540      0.07088790664590
