25
Coordinates from ORCA-job ./opt_b97-3c_parallel
  N   -2.94004491755880     -0.79946691596283     -0.01390850667600
  C   -1.58033244169684     -0.95557782534634     -0.02471037537651
  C   -1.10631725900849     -2.28235678809234     -0.11986654154689
  C   0.18633318267484     -2.75099218707382     -0.08855722879465
  N   1.37578325420120     -2.17709164155284      0.05709546463789
  C   1.60752372654814     -0.86082902642819      0.09301208399225
  N   2.94095251463688     -0.57596044998532      0.24952745049559
  H   3.48542933244836     -1.37768777297473      0.51963657560248
  H   3.18663297694254      0.30411882001833      0.67567126691269
  C   0.70625077316887      0.21612793988223     -0.04625941944545
  C   1.06221021538779      1.57857366697517     -0.14480698579460
  C   -0.09598595511674      2.35914270330862     -0.03737542640645
  C   -1.19846163375886      1.51833187612288      0.11090254260513
  N   -2.54979174688115      1.93860630666305      0.20832215284296
  H   -2.63290384790566      2.92529516293575      0.01020302371429
  H   -2.92389877596092      1.77972914336887      1.13624261554232
  C   -0.76137176293853      0.17607651728201      0.06447967678626
  H   -0.12798634709965      3.44024354360686     -0.05575598456344
  N   2.36448581934344      2.09759940725820     -0.24419474489990
  H   2.90344718614918      1.65538128810356     -0.97591538715472
  H   2.35399529663540      3.09384377552409     -0.40136643134913
  H   0.26436323981446     -3.83281095716760     -0.18093264345706
  H   -1.86647918634645     -3.04927718680275     -0.21935930198334
  H   -3.28529705265954      0.12121086051304     -0.25798519536181
  H   -3.48063994901947     -1.57410956907588     -0.35644634982187
