24
Coordinates from ORCA-job ./opt_b97-3c_parallel
  N   -3.57157302510690     -1.12852723545491     -0.16966045489139
  C   -2.24810687305397     -0.72278559152242     -0.07426759245572
  C   -1.29736003569262     -1.75691275795095     -0.00131243435807
  C   0.07585893677974     -1.64977294823978      0.01972060239830
  C   0.88307287807482     -0.52730180840389     -0.01573495931365
  C   2.30171104334050     -0.54909327978090     -0.00285436753135
  N   3.09745328764573     -1.69352656931414      0.07794511007580
  H   4.05831153887010     -1.51045553390391     -0.16494921965217
  H   2.75692842798895     -2.46048778866194     -0.48133828668354
  C   2.76003680623938      0.76959183317032      0.00127373668463
  C   1.66004492819840      1.63816912532789     -0.01575129030098
  C   0.48066621353453      0.88707416938946     -0.03773353764086
  C   -0.82892661189496      1.38742700252281     -0.07157173795315
  N   -0.98670558688362      2.76056690242408     -0.13515991349051
  H   -1.87605325310697      3.11210090668596      0.17435664118955
  H   -0.21874078782968      3.30337035376381      0.21730109422692
  C   -2.02059190314725      0.65064277469862     -0.10415395775669
  H   -2.92026882751871      1.25522619165199     -0.16991544447662
  H   1.74742088726518      2.71296525068183     -0.06481025858137
  H   3.79749530824616      1.07180729125844      0.00721935688451
  H   0.59660902425565     -2.59971630293982      0.09404814467518
  H   -1.69991272257895     -2.76269949488364      0.02872268472769
  H   -3.77192617098151     -2.04939554207328      0.18050987735596
  H   -4.26335193284397     -0.45405730024560      0.10853731036753
