21
Coordinates from ORCA-job ./opt_b97-3c_parallel
  N   -2.73943210213095     -0.99149662419683      0.19731653316351
  C   -1.80415745796631      0.04983941995371      0.10539395058165
  C   -2.13097118916142      1.42162753972525     -0.00778107011020
  C   -0.96604416185054      2.16005173986961     -0.11540707299965
  C   0.13502843435458      1.28039137100206     -0.05350736727531
  C   1.45675594182107      1.66402113873191     -0.06638804674080
  C   2.57540582658821      0.84444239728663      0.04056790799273
  C   2.59981270389351     -0.54045409603152      0.13841575874747
  N   1.65788194099353     -1.46976936605641      0.06634060440465
  C   0.33474117494019     -1.27918347891580     -0.03783544076961
  N   -0.34615027692943     -2.44794701840203     -0.22018338638438
  H   0.23453562922222     -3.23961681227118     -0.43725865355665
  H   -1.26366338967600     -2.41051147348578     -0.63519631799274
  C   -0.40803298802883     -0.08306152385955      0.05907044565224
  H   3.59141975882717     -0.96976091172281      0.26649594775008
  H   3.54339190435007      1.32840292891133      0.06617075738546
  H   1.63982951899345      2.73070162444763     -0.14832397962928
  H   -0.89241200742660      3.23353760341722     -0.19142875715315
  H   -3.13753346915481      1.81550062874584      0.00062313398119
  H   -3.68249842095770     -0.64474128574876      0.28232396102561
  H   -2.55066213900143     -1.62372416380050      0.96212503552720
