20
Coordinates from ORCA-job ./opt_b97-3c_parallel
  N   -3.26112541393590     -1.49795580223659     -0.14520705240311
  C   -2.18584974585991     -0.62793857751578     -0.05800413256971
  C   -0.91247952280614     -1.20433220399686     -0.04908434963238
  C   0.31913104666880     -0.58214753996617     -0.01329117593084
  N   1.48322297253976     -1.26139265026182     -0.00285684210548
  C   2.41595343482545     -0.28262863472033      0.03046271291639
  N   1.97248237981793      0.99837760694933      0.04192755448922
  C   0.63570309619942      0.86432813451336      0.01566707124786
  C   -0.25705350135103      1.92150785842513      0.01402549046608
  C   -1.64273812842288      1.83876558544799     -0.01455422646108
  C   -2.48548331764431      0.74416680573088     -0.04522714339841
  H   -3.54390276660620      0.98057838678009     -0.06847975184460
  H   -2.15447388266325      2.79430901679242     -0.00824318057576
  H   0.18412343383061      2.90974080092673      0.03850162342619
  N   3.73158221632406     -0.56653159533060      0.08727750739482
  H   4.37395433844392      0.17855513354224     -0.11013576556358
  H   4.01411188505224     -1.50101647247527     -0.14433691044204
  H   -0.86542264535481     -2.28773446036214     -0.07193108158738
  H   -4.14676881070315     -1.14366129531720      0.17176314045130
  H   -3.09312093835457     -2.44191064232540      0.15663433712253
