25
Coordinates from ORCA-job ./opt_b97-3c_parallel
  N   -2.97155601956354     -0.65869802036181      0.08675505654316
  C   -1.63173549853381     -0.93640803394458      0.05719712523206
  C   -1.26645579499991     -2.29134583215106      0.09925964861483
  C   -0.00564855756948     -2.84912015372042      0.00203221223212
  C   1.25729220472583     -2.29627238101615     -0.09564177689933
  C   1.62779025599417     -0.94271602534124     -0.05467182933808
  N   2.96867498998372     -0.67020060539240     -0.08445711549343
  H   3.56965651479644     -1.40261749036317     -0.41850457950017
  H   3.23294311630202      0.27095989437539     -0.34816840729766
  C   0.73289298853263      0.14077754908830      0.04638899018174
  C   1.07772449577404      1.50224847831775      0.10813427025650
  N   0.00425606252294      2.30728672654288     -0.00000806112568
  C   -1.07229111534443      1.50628787000890     -0.10752672302711
  N   -2.36597602513757      2.06018865642356     -0.19727137869860
  H   -2.29570959180492      3.06094675226949     -0.06936883566252
  H   -2.78637178077402      1.89011651768576     -1.10326698770777
  C   -0.73267480391510      0.14355547573097     -0.04472234900301
  N   2.37351192910811      2.05127825711702      0.19745530876153
  H   2.79327685473961      1.88027099824251      1.10356693767332
  H   2.30704825459563      3.05220240530505      0.06882385878665
  H   2.07559040723189     -3.00337391684436     -0.16962238171829
  H   -0.00773375252116     -3.93447505907123      0.00246602137093
  H   -2.08746962239434     -2.99523227283972      0.17380928668439
  H   -3.57536920637347     -1.38851775456766      0.42137729723003
  H   -3.23218260607540      0.28369757470618      0.34968464410430
