23
Coordinates from ORCA-job ./opt_b97-3c_parallel
  N   -3.64748677355725     -0.44794112764298     -0.27227554272654
  C   -2.33513093408757     -0.08526171990029     -0.09060952092685
  N   -1.52205765972602     -1.13434730937087     -0.00750480567418
  C   -0.18750549190070     -1.15728331678734      0.03145732186458
  N   0.30769547516957     -2.42711841264644      0.15769686636756
  H   -0.37777666897741     -3.11360565972576      0.42109957800529
  H   1.23525911813230     -2.52929169816861      0.54189821896085
  C   0.73482434910669     -0.09578181787383     -0.06563081997615
  C   0.41488383364659      1.32597260874365      0.03483696480586
  C   1.63394998105896      2.02460831083679      0.08811910498394
  C   2.67790010940710      1.11183295015836     -0.00698086792024
  C   2.14174131282786     -0.18590118486819     -0.10687007078980
  N   2.89483677591207     -1.37241458478289     -0.18635011899468
  H   3.88476251545593     -1.17921304995467     -0.21157748764435
  H   2.65436958981884     -1.92876703849846     -0.99585751757652
  H   3.73280704100212      1.34652487947957     -0.01981647376214
  H   1.72747404272255      3.09760568783873      0.15629089587886
  C   -0.84112211655572      1.90859196515139      0.05292243533078
  C   -2.07290338214953      1.29868420844751     -0.01892335721628
  H   -2.94032312431917      1.94703695900574     -0.04130257038677
  H   -0.85187767618800      2.99170360336813      0.12315292089493
  H   -4.36489564214005      0.21291670416657     -0.03502365227944
  H   -3.85382138005915     -1.41133026597611     -0.07394885111870
