22
Coordinates from ORCA-job ./opt_b97-3c_parallel
  N   -2.59991148885911     -2.71201817017094      0.03713169915979
  C   -2.06727582295666     -1.67465765914657      0.02357132006779
  C   -1.45915779364257     -0.42136458236312      0.00888440753278
  C   -2.15816343285904      0.82075406374846     -0.00114632703672
  N   -3.49754960024629      0.92860754676875     -0.03741104901140
  H   -4.06711055994461      0.11149847316298      0.09435062199972
  H   -3.93646834071891      1.81759780638001      0.11079098594176
  C   -1.23030225465378      1.87616467165915     -0.00339174372910
  C   0.05519720298151      1.34962936691898      0.00529641865878
  N   1.14792827023934      2.10704934019089      0.00365771640841
  C   2.39081896541227      1.64780323774897      0.01164165346038
  C   2.93841791787183      0.37133926423079      0.02457637439912
  C   2.30862547604655     -0.87632442778830      0.03535197329044
  N   3.10347643830374     -1.99765587368255      0.10181705169553
  H   2.69436828000131     -2.87311230121562     -0.17258501872866
  H   4.06656312874454     -1.89922308710985     -0.16575343393652
  C   0.91839927613954     -1.08803483802538      0.03497907656297
  C   -0.07605084900886     -0.14812227971807      0.01486135031681
  H   0.59114717395761     -2.12314908583159      0.05256408662011
  H   4.02320048250062      0.35189357125911      0.03226605681952
  H   3.13173661960843      2.44345798870543      0.00398777293492
  H   -1.45792852571751      2.92914110487849     -0.01657209592641
