22
Coordinates from ORCA-job ./opt_b97-3c_parallel
  N   -0.40036037989819     -2.48629096566047      0.02369450422195
  C   0.31343445260910     -1.32586279097175     -0.00213194576746
  C   1.72072844998327     -1.46356659669121     -0.00007033531127
  C   2.71322597832064     -0.51097233589106     -0.01841193827284
  C   2.64071698361054      0.88124053367690     -0.02699197572293
  C   1.49660261380732      1.65399116350018     -0.01007429059023
  C   0.16953424121699      1.24967082340537     -0.01267590662572
  C   -0.91584761470114      2.14578818624912      0.02738560846660
  C   -2.09741522278987      1.41946229853213     -0.01369604993011
  C   -1.79518171370349      0.04681992634843     -0.07023966533385
  N   -2.74582007938960     -1.01780258204652     -0.11589156443942
  H   -3.62603865524511     -0.72023250803980      0.28160177245411
  H   -2.93396112169607     -1.30102203953731     -1.07090644247694
  C   -0.39715424822256     -0.11030626908391     -0.05568488691512
  H   -3.09830470729865      1.82836974395763     -0.01416102377860
  H   -0.82293548261112      3.21999059229164      0.06729442663925
  H   1.64515908344908      2.72925900798107      0.01206635798279
  H   3.58594483598388      1.40880021493090     -0.03122637262277
  H   3.71966353280128     -0.91616641810308     -0.01567124948244
  H   2.06820684848249     -2.49134119230866      0.01541760049276
  H   -1.39186125805173     -2.40722185940235      0.22681875083610
  H   0.07036801065456     -3.32371773613803      0.31455513716989
