22
Coordinates from ORCA-job ./opt_b97-3c_parallel
  N   3.28432323172806      1.52827145067968      0.14716449618051
  C   2.21254394555828      0.63124833664558      0.05533365032882
  C   0.93067465571515      1.18968065747257      0.04868487249323
  C   -0.30926487665817      0.58171618855312      0.01667311745202
  C   -1.53640604971169      1.24809413487088      0.00844934928654
  C   -2.56387432929289      0.28927977084896     -0.01900916453787
  N   -3.90358417255974      0.56327362133571     -0.08477280935005
  H   -4.19248345514773      1.47332543987871      0.22922097248234
  H   -4.52696126526263     -0.17081743825539      0.20283783681021
  C   -1.99953656573089     -1.00414500493467     -0.03408831454085
  C   -0.61462974238795     -0.88177803860440     -0.01046614358730
  C   0.30801969914874     -1.91603847857660     -0.00692979237165
  C   1.69257091707552     -1.83563654146432      0.01944365644639
  C   2.52765805216709     -0.73108720624045      0.04636906477415
  H   3.58895210855688     -0.95779346775113      0.06808275359884
  H   2.20772569908651     -2.78937200707227      0.01441773882978
  H   -0.10830666108504     -2.91777527903779     -0.02881690381616
  H   -2.54940942375635     -1.93266741679358     -0.06307843151357
  H   -1.67082450226963      2.31916643986196      0.01871249506024
  H   0.90097307191562      2.27610367186486      0.07384423882978
  H   4.15647465732975      1.17176324045726     -0.20723373236949
  H   3.09534028868108      2.44347185536130     -0.22709047638594
