20
Coordinates from ORCA-job ./opt_b97-3c_parallel
  N   -3.19829093572657     -0.77436370864755      0.10475306884893
  C   -2.08385710687920      0.03305383282363     -0.01507094450890
  C   -2.08417154842226      1.42590705710838     -0.09290748846032
  C   -0.75725251723090      1.88777433204082     -0.12636200582377
  C   0.11009005942411      0.80218353299885     -0.08756963101102
  C   -0.72539806993255     -0.40586924847930     -0.00725147190259
  C   -0.30078441470204     -1.70679668616746      0.10896509861479
  N   0.92436445220301     -2.23379258447039      0.04017431327858
  C   2.03890605055695     -1.52157127432693     -0.12234857293893
  N   2.35411241014420     -0.23878553905332     -0.11201052675628
  C   1.51122953445653      0.81016810908907     -0.03209726405757
  N   2.16986247029422      1.99431087593810      0.04979586337529
  H   3.16190683860573      1.93431981642702      0.19589286185744
  H   1.69821146502814      2.81302201424465      0.38468917460321
  H   2.91271776361809     -2.15399644237618     -0.26239532490931
  H   -1.07241823200550     -2.45882455120757      0.26773976285120
  H   -0.48143676284763      2.92825825042383     -0.20856310412032
  H   -2.96498716717929      2.05018345102554     -0.12223998794304
  H   -3.10536276180263     -1.69862736515752     -0.28163045727759
  H   -4.05610880380245     -0.34358838073359     -0.19733086481985
