20
Coordinates from ORCA-job ./opt_b97-3c_parallel
  N   3.35308002227051      1.41439678628433     -0.12921896401048
  C   2.22205371949521      0.61998629007137     -0.05119495480778
  C   0.98450286426089      1.26022003540126     -0.04892867479074
  C   -0.27195650674498      0.68337236921389     -0.02510858792106
  C   -1.49675383280073      1.33035192514227     -0.02070910626275
  C   -2.46997922271819      0.31055725263069      0.01464023422873
  N   -1.94970684684642     -0.94026598063055      0.03583270163636
  C   -0.61821138401894     -0.79174073209025      0.01208722559568
  N   0.17033896416223     -1.84762443672828      0.01635042715440
  C   1.50206245515536     -1.80175084855800     -0.01113172149339
  C   2.42082939153122     -0.77168938785757     -0.03961265010571
  H   3.45573929445842     -1.09732136745456     -0.05968969847126
  H   1.95086004792054     -2.79206818700809     -0.00477620981394
  N   -3.80855983732875      0.46603083754653      0.06358134732806
  H   -4.21723561038516      1.34746025756905     -0.18465395995108
  H   -4.36539693681138     -0.35643727320793     -0.08922605601923
  H   -1.66944515967750      2.39527391226559     -0.03531516509784
  H   1.00732292409926      2.34600727065776     -0.07234302699005
  H   4.21133793313453      0.99791353616098      0.18743069726130
  H   3.25080794744389      2.36732458879148      0.17391234303079
