23
Coordinates from ORCA-job ./opt_b97-3c_parallel
  N   2.83662670725153      1.51697453876028      0.01093031107698
  C   1.88402677506301      0.52948267261862     -0.01517931804665
  C   2.36191614715395     -0.78768810837163     -0.12355012255932
  C   1.65073336429025     -1.96891008619485     -0.15110271407877
  N   0.36693840553458     -2.27485816571115     -0.03096023085688
  C   -0.64773325615624     -1.40605487281906      0.05448956007720
  N   -1.84863581854150     -2.02808267624426      0.24036067911134
  H   -2.61060734586962     -1.49263335069295      0.62915135405636
  H   -1.77590507240610     -2.99958157205705      0.48853596104697
  C   -0.63311405619856      0.00288918019563     -0.06385364736767
  C   -1.77151081918928      0.83944686936971     -0.09845183222555
  C   -1.35019352737525      2.17440281729825     -0.03970050593356
  C   0.03933317300162      2.20766686349998      0.02877690485952
  C   0.53081482376598      0.89276412157273     -0.00681817450305
  H   0.62380973269546      3.11465438293398      0.02680048735305
  H   -2.00429467290182      3.03438554391464     -0.06290782697775
  N   -3.11579942931616      0.41347188294435     -0.13040262052742
  H   -3.74557738319714      1.20181841823880     -0.14101526012453
  H   -3.31562898252834     -0.16483230655339     -0.93598171249875
  H   2.27400370825435     -2.85464064970957     -0.25886174639964
  H   3.43763557255157     -0.90218733935414     -0.19602159189505
  H   3.76342227101447      1.24166409862525      0.28265722668208
  H   2.56187479480324      2.41392368023584      0.36697328823106
