28
Coordinates from ORCA-job ./opt_b97-3c_parallel
  N   -4.36010746581494     -1.67870636194838     -0.39072739122187
  C   -3.40651476185035     -1.02359579923678     -0.23768943010686
  C   -2.26440010464194     -0.22510525153527     -0.05076972956185
  C   -2.52291913553267      1.16621152184533      0.13619904320686
  C   -1.59379706720175      2.21406796282780      0.18789926787844
  C   -0.22320565520202      2.15973700958367      0.05065353280417
  C   0.61146001426156      1.06801678714567     -0.05086993136750
  C   2.02096104898299      1.15513188005772     -0.13650439735400
  C   2.54928763864946     -0.14670774921466     -0.00845613204113
  C   3.90334516106952     -0.48336490476295      0.00419021220939
  N   5.03285291409826     -0.77075076870353      0.01209926394545
  C   1.47556025796034     -1.06503818346232      0.13151096250420
  N   1.65660177194963     -2.43922196009146      0.24822452730387
  H   2.63082782340119     -2.69869781999219      0.30575168591841
  H   1.14692426563228     -2.85077954789478      1.01704716353236
  C   0.26331215094510     -0.35669384360203      0.06203461048742
  C   -1.01656049278824     -0.92379499521299     -0.05127522768340
  N   -1.09348921234389     -2.28128120552004     -0.15747980005233
  H   -1.98075144693180     -2.69240103662095     -0.39377476370172
  H   -0.28121903185963     -2.76167646715127     -0.51265114064794
  N   2.77679652879768      2.29664274238334     -0.20682495105182
  H   2.38349274215636      3.05902726447601     -0.73074469555965
  H   3.75013907642843      2.15266337207718     -0.42044210245672
  H   0.26565173609546      3.12839307468653      0.06408437714191
  H   -2.01926405842980      3.19961749935456      0.32980605603720
  N   -3.82770389083775      1.52765067182394      0.27416605560014
  H   -4.07458596296881      2.49458277870557      0.17771814272338
  H   -4.56125709242465      0.86239325898232      0.10252600101357
