17
Coordinates from ORCA-job ./opt_b97-3c_parallel
  N   -2.84859778438755     -1.22372998137500      0.00117302851126
  C   -1.73898613816382     -0.44870992215082      0.00048875441335
  N   -0.60006764407058     -1.17057792652737      0.00030559452964
  C   0.61233020750622     -0.69087892971372      0.00075758618651
  N   1.68123891161241     -1.51994471172348      0.00058533328933
  C   2.75760332724011     -0.71490921642419      0.00146470657084
  C   2.46900689846489      0.65961057776519      0.00218337821630
  C   1.08677569461772      0.75354478879558      0.00170878174677
  C   0.26804300963768      1.86255202910901      0.00149858699074
  C   -1.12557139571244      1.85443571504553      0.00049701077482
  N   -2.00165706882087      0.86752380339117      0.00008977313908
  H   -1.59423687191890      2.83538885357670     -0.00004078378195
  H   0.73758210343798      2.83995056158714      0.00187794732330
  H   3.17667737882912      1.47264767209798      0.00284092443443
  H   3.74779780797231     -1.15161998358186      0.00156716910816
  H   -3.75284649566269     -0.79290010005734     -0.00056090288127
  H   -2.75256244078156     -2.22095262341452     -0.00045999747133
