25
Coordinates from ORCA-job ./opt_b97-3c_parallel
  N   -3.40611405474927     -1.94976631532120      0.16390054469170
  C   -2.52092902731187     -1.19466850077215      0.08367051577246
  C   -1.45909295308682     -0.27453391001852     -0.00851797665485
  C   -1.85497255190558      1.09022289712074     -0.09138006650530
  C   -1.03193175055463      2.22516050495556     -0.06800685319233
  C   0.33907025796930      2.29653719757652      0.01816576582816
  C   1.27969855351576      1.28254960680965      0.03274460964927
  C   2.66855901708862      1.50293193697322      0.10507341620073
  C   3.32277236621281      0.28200959549697      0.02189329780027
  C   2.36396972671414     -0.73920086481534     -0.09260239610017
  N   2.65455811204628     -2.11642140078448     -0.18897733015135
  H   3.64461558375039     -2.28826645881312     -0.09450226596107
  H   2.34724650842713     -2.51383466875125     -1.06781785840779
  C   1.07261841305229     -0.16002214107223     -0.06224839711082
  C   -0.14937778771390     -0.85161898621152      0.01750854727258
  N   -0.09457905800669     -2.20772482043512      0.10345228050319
  H   0.78637916222273     -2.61535493683044      0.38580809971587
  H   -0.92868751389829     -2.71756808307950      0.33766884123028
  H   4.39201068861542      0.12689521120221      0.01818103728063
  H   3.13270199501479      2.47467072115248      0.17334259577517
  H   0.74793146146086      3.30031673741910      0.07157568265863
  H   -1.55617843319786      3.17199152623654     -0.11640987512992
  N   -3.19423209838621      1.33618268772320     -0.21563416155422
  H   -3.85428280161788      0.59901051534927     -0.03746091416072
  H   -3.52092782066156      2.26302547438944     -0.01491650375042
