19
Coordinates from ORCA-job ./opt_b97-3c_parallel
  N   -3.18101249018697     -0.74768505273936     -0.06614315248695
  C   -2.04533436630044      0.00496534581193      0.03424218719794
  N   -2.11133112164534      1.33867559345876      0.11346866030759
  C   -0.82806968550196      1.79315439931511      0.13793286817604
  C   0.10304245020241      0.76991908048918      0.10127539001779
  C   -0.68940134098491     -0.45699297662137      0.01811950645913
  C   -0.24353058988115     -1.74540969967251     -0.10813698116461
  N   1.00115682308919     -2.23499611349769     -0.04100412145602
  C   2.09171391229521     -1.49044428828351      0.11453941781964
  N   2.37927102352285     -0.19627718799757      0.08899751300675
  C   1.50846242966476      0.82646973805128      0.02003294158177
  N   2.11689897869460      2.02171864187892     -0.09818191733882
  H   3.11798719354678      2.02647936161333     -0.17610361772356
  H   1.60633536046118      2.86123258145433     -0.29375889462267
  H   2.98304189810124     -2.09601873956053      0.26218180125979
  H   -0.99569730580455     -2.51596319738818     -0.26927970599011
  H   -0.64999932456910      2.85657682470849      0.21061976878232
  H   -3.14738924705147     -1.68194191755169      0.30134922417224
  H   -4.01965638555234     -0.24806791946892      0.17973236970169
