19
Coordinates from ORCA-job ./opt_b97-3c_parallel
  N   0.64245472340652      2.60708492008746     -0.00369470304831
  C   0.67537519923572      1.25269994990136     -0.00130334100232
  C   1.95327669962099      0.65455425845083     -0.00189188566324
  C   2.32032868124028     -0.67435749045877     -0.00116000609119
  N   1.63965715534588     -1.82505510270797      0.00054362665553
  C   0.31750736014274     -1.89989796628955      0.00146820028015
  C   -0.66682251868888     -0.91989128946876      0.00083089661360
  C   -2.04796423227784     -1.20383991031566      0.00162304858623
  C   -2.74619359987716     -0.00399645516987      0.00031306829266
  C   -1.83022810045123      1.06289090792063     -0.00113838628741
  C   -0.53545942323486      0.54154536789235     -0.00083117078650
  H   -2.11298755347188      2.10528282207736     -0.00331887645913
  H   -3.82058926652552      0.10178422505486      0.00017730683241
  H   -2.47237796029324     -2.19557767762867      0.00298008539253
  H   -0.05822552921205     -2.92166461699205      0.00287465126950
  H   3.39668956773552     -0.83045172678565     -0.00176781873871
  H   2.78934838621460      1.34653013413057     -0.00305455501487
  H   -0.22419626810950      3.10689532041821      0.00870487055813
  H   1.48737496689993      3.14434753908332      0.00709505691090
