20
Coordinates from ORCA-job ./opt_b97-3c_parallel
  N   3.99518934053922      0.05921167348267     -0.05129660042779
  C   2.83145974049859      0.03401920613466     -0.02494179596890
  C   1.42291884026648     -0.00889931707447      0.00236250499327
  C   0.76637130210785      1.26851790153668      0.02096282462268
  N   -0.52733148901213      1.57863262177248      0.00079670694506
  C   -1.53704027313950      0.73949961472074     -0.00769009967151
  N   -2.81041400944158      1.15901523284744     -0.03421974157752
  C   -3.52355323612679      0.00989601956295     -0.02100754350376
  N   -2.86102122584587     -1.15508603618549      0.01129376420575
  C   -1.56323916070387     -0.76577794674827      0.01819704900362
  C   -0.51233835398571     -1.62851384016158      0.03248610995558
  C   0.86290507235860     -1.30737427535942      0.02032061795918
  N   1.70748774157499     -2.36733122976416      0.04391958819761
  H   2.70080675153768     -2.24949374474252     -0.04703336860896
  H   1.34587643649537     -3.29574699580997     -0.06034477806303
  H   -0.76865148553851     -2.68154277136371      0.05000468621928
  H   -4.60458974252290      0.03319896215199     -0.03567344017511
  N   1.55826889406852      2.36569179708546      0.06579231857793
  H   2.55844320340247      2.32310670202320      0.00320399155368
  H   1.09880627416709      3.25500862169135     -0.00422280913703
