17
Coordinates from ORCA-job ./opt_b97-3c_parallel
  N   -2.16718070825684     -2.23305664184559      0.00390301242972
  C   -1.30513338284865     -1.19674922087527      0.00186010283265
  N   -0.01377457031575     -1.60811951160497     -0.00149415038559
  C   0.98497449811488     -0.77253401745240     -0.00149230518436
  N   2.26922827959004     -1.16367634278991     -0.00366889268828
  C   2.94752368739489      0.00013422610537     -0.00108581061201
  N   2.26909147670442      1.16386392172472      0.00249293472448
  C   0.98488405678851      0.77256758220175      0.00208932256729
  N   -0.01396644301840      1.60803234122274      0.00373638004523
  C   -1.30527865832008      1.19650518702429      0.00262352040884
  N   -2.16745659524076      2.23270766380053      0.00096988904423
  H   -1.80662501815896      3.16789969894561      0.00447533602030
  H   -3.15487059832860      2.06235726818358      0.00370141898453
  N   -1.88555984996456     -0.00015755494300      0.00304986582539
  H   4.02964595788737      0.00019988724804     -0.00185607254497
  H   -3.15461507849533     -2.06283100736011      0.00672225178873
  H   -1.80623356803217     -3.16820961918539      0.00351536794382
