15
Coordinates from ORCA-job ./opt_b97-3c_parallel
  C   2.38483491596687      0.00037490819562     -0.00269141147630
  N   1.88711491119229      1.23899111503548      0.00083096870947
  C   0.59268273859431      1.55612063198231      0.00246002976949
  C   -0.51533552488831      0.73527325721603     -0.00139476696846
  C   -0.51509518907641     -0.73547311432582     -0.00143612847474
  C   -1.86921934930382     -1.08691767893902     -0.00184810276648
  N   -2.66910483669421     -0.00044729264628     -0.00245059841483
  C   -1.86956923899877      1.08627794503455     -0.00186619579431
  H   -2.28664590610081      2.08200742883947     -0.00168031864962
  H   -2.28597645855698     -2.08278577290082     -0.00165405437045
  C   0.59319366627141     -1.55595657476656      0.00258177443345
  N   1.88751796097489     -1.23839736920650      0.00084607867089
  H   0.40519544244617     -2.62752448653387      0.00681104940605
  H   0.40433024076004      2.62762677065283      0.00662214987940
  H   3.47124197051335      0.00055394196260     -0.00861373085356
