18
Coordinates from ORCA-job ./opt_b97-3c_parallel
  N   -3.09347636493333     -1.46751176833094      0.04501843632523
  C   -2.05753134294190     -0.59819031213325      0.01893676578023
  N   -0.86142741213817     -1.20506730302338      0.02676884785787
  C   0.29912437877330     -0.59297624478980      0.01813615547682
  N   1.45930657499886     -1.26187353703994      0.01656319005034
  C   2.38885479551072     -0.27879165944635      0.00908267528893
  N   3.69112980869884     -0.55503683910800     -0.00168453661674
  H   4.35888261335442      0.19282690392778     -0.00242558420872
  H   3.99931894603475     -1.50899834824064      0.00307303276458
  N   1.95213893540504      1.01478144324610      0.00795631589336
  C   0.62658319331413      0.88224616561788      0.01084152309850
  C   -0.29246548955901      1.91125827235030      0.00465285640020
  C   -1.67626074690117      1.75316846096442     -0.00288460040256
  N   -2.45709710885329      0.69052933274845      0.00029221738027
  H   -2.23891271017914      2.68411973166834     -0.01491227063890
  H   0.09148158740628      2.92320253815073     -0.00051233323285
  H   -2.90733995833829     -2.44945830088532     -0.02739687011271
  H   -4.02708046615206     -1.11551347237641     -0.04506469430384
