20
Coordinates from ORCA-job ./opt_b97-3c_parallel
  N   -3.33420276439231     -0.24650436692787     -0.25199423906930
  C   -1.99400284396698     -0.24795182912524     -0.04010989793615
  N   -1.46575119077391      0.97732165483607      0.00427817924604
  C   -0.17941253842572      1.31198869223170      0.01046733981188
  N   0.02469586249954      2.65681518310622      0.05948631548449
  H   0.91047346636269      3.00483923603021      0.37527970953581
  H   -0.78446026805411      3.21489898598436      0.26647291974062
  C   0.94959759629770      0.46485017566981     -0.07196172424108
  C   2.29574156573879      0.82431466895208     -0.16602805069795
  C   3.07888420736484     -0.34540918385427     -0.11689852167823
  C   2.23962187556577     -1.44243288512086      0.02212070950644
  C   0.90498730853869     -0.98069411045402      0.04258960332078
  C   -0.21683878029334     -1.78738766939677      0.16024792302879
  N   -1.50175170496713     -1.49531500789193      0.11374549652367
  H   -0.01955586006293     -2.84923897129459      0.29687335129269
  H   2.53728821347001     -2.47761861795756      0.08728040274270
  H   4.15586479058018     -0.37554593379709     -0.18056052785010
  H   2.69039489877697      1.82231404803059     -0.28705423640051
  H   -3.82589687000336      0.62616343786697     -0.20868464583413
  H   -3.83177227635539     -1.10594293758782     -0.11255297622645
