19
Coordinates from ORCA-job ./opt_b97-3c_parallel
  N   3.06113441077892      2.15285731493937     -0.00288393464578
  C   2.24601256627704      1.32131246230982     -0.00229922661245
  C   1.31351695371593      0.28218787152920     -0.00217790588872
  C   1.66331521699208     -1.10848787187426     -0.00324745571369
  N   2.92194448001427     -1.55679721361316     -0.00414445258798
  H   3.69631678029839     -0.91665780804846     -0.00504799621087
  H   3.12605995783842     -2.53813479900434     -0.00587211454482
  C   0.48827830015184     -1.88126023672952     -0.00296810069704
  C   -0.60452192490326     -1.02891914038354     -0.00173819661266
  N   -1.86415271121753     -1.45456264789667     -0.00105757100876
  C   -2.94385931593635     -0.68589075873252      0.00004683475265
  N   -3.16087324376914      0.63345922709780      0.00051786193681
  C   -2.23888224413590      1.58470430860146      0.00023413839223
  C   -0.84516996450785      1.52325529600365     -0.00044172108077
  C   -0.07975319875209      0.37932167072973     -0.00129472605079
  H   -0.32251924664324      2.47342755867730     -0.00037333473775
  H   -2.65570074920170      2.58871524841934      0.00065817278036
  H   -3.86623644131941     -1.25834304279489      0.00059793063563
  H   0.42835975951958     -2.95674273593043     -0.00352160800551
