26
Coordinates from ORCA-job ./opt_b97-3c_parallel
  N   4.67037029678855      0.07905160346827      0.14304392624930
  C   3.50837897352354     -0.00676251412137      0.09858276188995
  C   2.11777937086516     -0.09925028775736      0.04285972792353
  C   1.37081178795667     -1.29146311190879     -0.08489342775597
  N   1.91796219997594     -2.55285665418620     -0.10537769583685
  H   1.40472054012897     -3.24213193171198     -0.62768598539023
  H   2.90139791796943     -2.58025763661981     -0.32117530273989
  C   0.00078497687460     -0.95302196091729     -0.06344792732914
  C   -0.08947174745070      0.51273168219637      0.02886462803874
  C   1.21912230443656      1.00118545059856      0.11949044215907
  N   1.63150654112219      2.32574267297833      0.20228272120734
  H   2.62659268221893      2.41665248229112      0.34534249981935
  H   1.13031285465097      2.86306130573119      0.89428151492726
  C   -1.26698643065942      1.27274368774329     -0.11675318829930
  N   -2.54362278664140      0.88764096707457     -0.07669165679923
  C   -3.03405112883323     -0.34624068264555      0.03010383118407
  N   -4.39945850334984     -0.35824466252188      0.11564406033079
  H   -4.86078990670417     -1.17694789429687      0.46699078009620
  H   -4.83170915942970      0.52618467966758      0.31669352642179
  C   -2.39971342430163     -1.60576619852481     -0.00162159922437
  C   -1.04478286203214     -1.85375917342133     -0.06025334010231
  H   -0.77422327909905     -2.90477189072495     -0.07771965814796
  H   -3.05484352948949     -2.46720063783437      0.02058700731137
  N   -1.14005209469894      2.62799281735552     -0.28123965215712
  H   -1.99393211635403      3.08207167913232     -0.55784983117738
  H   -0.29482762126776      2.96685478205550     -0.71375746639905
