23
Coordinates from ORCA-job ./opt_b97-3c_parallel
  N   -4.15364310978778     -0.00233676417117      0.00770198931207
  C   -2.99622586610632      0.10497597596960      0.00734000191834
  C   -1.60791264388300      0.36773578521410      0.00619782458269
  C   -0.74727718206760     -0.72196651318051      0.01167264178574
  N   -1.16088767027155     -1.99046821007222      0.01794264487777
  C   -0.00135034209176     -2.69873352034670      0.02166514801819
  N   1.15890470222580     -1.99164099679282      0.01829177202027
  C   0.74657994734216     -0.72272177605011      0.01184918092091
  C   1.60831547686907      0.36610886113636      0.00631100551956
  C   2.99636286142555      0.10194674678444      0.00758038433814
  N   4.15367051882425     -0.00653744995721      0.00796349126447
  C   1.21138264951064      1.74441779185342     -0.00096047912575
  N   0.00117091267684      2.28332347707759     -0.00336757670363
  C   -1.20958627336362      1.74564744886746     -0.00037957885980
  N   -2.20063029010486      2.66272703915498     -0.00428102799324
  H   -1.94398968339251      3.63181283464234     -0.00958730278326
  H   -3.17040665709549      2.40393388299466     -0.00332057379178
  N   2.20335594993699      2.66048554317298     -0.00626629987201
  H   1.94769949320083      3.62983479073143     -0.01094235646169
  H   3.17286929196246      2.40070797918834     -0.00490171132637
  N   -0.00202360192782     -4.02716510357391      0.02832880430023
  H   -0.87201499214848     -4.52636526228982      0.03061302504127
  H   0.86746068226617     -4.52724638635327      0.03090588591784
