21
Coordinates from ORCA-job ./opt_b97-3c_parallel
  N   -4.15789654258170     -0.27907842421785     -0.00000043783828
  C   -2.99989081705868     -0.18691304020798      0.00010291121147
  C   -1.61016103190007      0.07714660681479      0.00026620274011
  C   -0.74570912880904     -1.00039510585538      0.00025383009976
  N   -1.15353723322531     -2.28151974790162      0.00008590827405
  C   -0.00048522274399     -2.97726305633752      0.00008126676908
  N   1.15278457756511     -2.28188097256163      0.00025880493178
  C   0.74535809216375     -1.00062845727002      0.00037887200394
  C   1.61014719241189      0.07664190863523      0.00063981836044
  C   2.99979392536757     -0.18785315446910      0.00081107307829
  N   4.15777088567810     -0.28038041976639      0.00118096820201
  C   1.21348002687391      1.46036209910946      0.00081956536774
  N   0.00029276414226      1.98856173303745      0.00059822185875
  C   -1.21306022658133      1.46074284117339      0.00031816838595
  N   -2.20332920407196      2.37564533467625      0.00010829673696
  H   -3.17325595680631      2.11618828115702     -0.00020490170482
  H   -1.95026247072689      3.34605893552836      0.00010172255705
  N   2.20403644239279      2.37495356813769      0.00122862512917
  H   1.95127533493771      3.34544691896540      0.00135190840305
  H   3.17388155967178      2.11519057078915      0.00146655514004
  H   -0.00065476199963     -4.05769177723668     -0.00004423500652
