21
Coordinates from ORCA-job ./opt_b97-3c_parallel
  N   3.21204724728687      1.73165444940519     -0.01209997624655
  C   2.19472519254200      1.17074802400123      0.00010793174221
  C   0.88468899403397      0.63269864128712      0.00728906882898
  C   0.76820361831732     -0.75294333810031      0.00456529064428
  N   1.83410173639064     -1.55868395503971      0.00559420288824
  C   1.33300529316936     -2.82703029893001      0.00546086735832
  C   -0.05014552912016     -2.89090229535330      0.00255567724728
  C   -0.49564171696680     -1.55709958121238      0.00093831524784
  C   -1.78128868357634     -1.09545096798853     -0.02046342507284
  C   -2.20478021829199      0.25306756946050     -0.02648586965438
  N   -3.55828715025058      0.46094810434220     -0.10717686052758
  H   -4.18149171896288     -0.27793830964819      0.16258930965440
  H   -3.86701544227065      1.39528869330520      0.09628270007410
  N   -1.50006569964266      1.37282299760735      0.00047655847242
  C   -0.18966860101938      1.58016906986930      0.01892886119062
  N   0.14512980166139      2.89492842587004      0.08416602114579
  H   1.09342349494910      3.19601370435692     -0.05096677448763
  H   -0.59387182331773      3.55742785729733     -0.05981725701954
  H   -2.56741015422156     -1.84240783872670     -0.04732969669287
  H   -0.66849235372646     -3.77306510663880     -0.00191309146567
  H   2.01681037531634     -3.66437345076413      0.00724465667215
