23
Coordinates from ORCA-job ./opt_b97-3c_parallel
  N   -0.19774815690450     -3.63358696448481     -0.01080305096312
  C   -0.02695521063765     -2.48382822713250      0.00247169881275
  C   0.31708940044533     -1.11123059156420      0.00806902227550
  C   -0.73427621432640     -0.19853867296900      0.00166515194672
  N   -2.01002947199145     -0.58793954365143      0.00126666689174
  C   -2.74510254628893      0.56172978447489     -0.00982394597698
  N   -4.08388761614871      0.46969061681703      0.01331166369680
  H   -4.65796547071714      1.27324411068268     -0.15628607155502
  H   -4.49268744508676     -0.43934066552214     -0.11103996516080
  C   -1.96019846972339      1.72822225812180     -0.01674603525526
  C   -0.63857013410370      1.29417140672768     -0.01106134609193
  C   0.51018532985508      2.05462803808186     -0.03045642018529
  C   1.83602485336576      1.60024272311190     -0.03162976410577
  N   2.81727441938691      2.56376165895647     -0.11546791843361
  H   3.73857811916392      2.24461536957155      0.12894739816492
  H   2.59184556065881      3.49396221537319      0.18813806069978
  N   2.33332659180108      0.36625123505728     -0.00081813024757
  C   1.71797795288184     -0.80447433656966      0.02116915217201
  N   2.57379833057280     -1.86005585778234      0.09676398312721
  H   3.54253014132061     -1.65810692208984     -0.06772028165081
  H   2.24943758030645     -2.79666942398758     -0.06425525713774
  H   0.37499478009443      3.13007855136023     -0.06496805721433
  H   -2.30508044572402      2.74913007411687     -0.02403533990893
