19
Coordinates from ORCA-job ./opt_b97-3c_parallel
  N   -3.52776404854897     -1.13406580950262     -0.00004786254722
  C   -2.42191506971612     -0.77793924014016     -0.00084202586059
  C   -1.03768732331285     -0.48742152462986     -0.00165925864062
  C   -0.64002609399760      0.83218500010357     -0.00189923728001
  N   -1.47605996076581      1.87748967158600     -0.00076047490900
  C   -0.63780138197892      2.93995993468674      0.00179170604896
  N   0.68401881171656      2.71534340642461      0.00228188621425
  C   0.77868809291151      1.37033948631709     -0.00059737844723
  N   1.92565702300078      0.75042438730745     -0.00312907308170
  C   2.05490723444086     -0.59277488245301     -0.00731162621686
  N   3.34707239751920     -0.98016585741651     -0.01591989201863
  H   4.06512556816268     -0.28051853234601     -0.01748785366492
  H   3.57919419353886     -1.95492684594577     -0.01819843677525
  N   1.19027311437473     -1.60841060572303     -0.00332608991752
  C   -0.13005576545366     -1.60937888288278      0.00046846331960
  N   -0.68525640599313     -2.83685956547760      0.00651249504841
  H   -0.07343885019955     -3.63162029879130      0.00635829817928
  H   -1.67951642322672     -2.97618802108134      0.00866675003327
  H   -1.03088853417189      3.94718686146454      0.00337566311590
