23
Coordinates from ORCA-job ./opt_b97-3c_parallel
  N   4.31356917629560      1.25623345889012      0.00363460155121
  C   3.27656458394246      0.72732867769934      0.00283329477435
  C   2.08173086161341      0.00947806673470      0.00215249787308
  C   1.97410300328995     -1.41572502168938      0.00166586634174
  N   0.69721187823275     -1.85856184126598      0.00094491007822
  C   -0.07374979960081     -0.76383064798376      0.00091120555142
  C   0.76581669552614      0.48771900512001      0.00155510782619
  N   0.42776019488940      1.75434587491116      0.00147470020909
  C   -0.83501880977804      2.20614816852664      0.00086620616551
  N   -0.90638591015821      3.55496915078727     -0.00029052254853
  H   -0.05789435502897      4.08863142052823      0.00211425432748
  H   -1.79944269554593      4.00862629580582      0.00191006048461
  N   -2.03298954179052      1.61164467575421      0.00104671923238
  C   -2.33131388606622      0.32635303197201      0.00099617234705
  N   -3.65496307194413      0.06856662338912      0.00140875139973
  H   -4.02080727270709     -0.86617611969220      0.00109116571728
  H   -4.28485007377415      0.84893299055535      0.00126614643909
  C   -1.45531253872751     -0.82046281601130      0.00057290763916
  C   -2.06614823590823     -2.09546038951339      0.00016849960611
  N   -2.66779407371213     -3.08972209807210     -0.00036820400512
  N   2.99108700035083     -2.26848522329016      0.00187756332067
  H   3.94172672016807     -1.94489043718927      0.00244945623748
  H   2.80487803583337     -3.25570572466646      0.00145605673182
