21
Coordinates from ORCA-job ./opt_b97-3c_parallel
  N   3.69242957025176      1.78653729832450     -0.01479727283925
  C   2.73742318731439      1.12103967411136     -0.01342489729687
  C   1.66194138400576      0.23281214261377     -0.01189248725278
  C   1.78162159454367     -1.19191659735744     -0.01769392005032
  N   0.59452526906581     -1.82363158702638     -0.01606831252275
  C   -0.34801523185722     -0.85614140098941     -0.00932540295528
  C   0.28813021317286      0.50139815760066     -0.00657595162637
  N   -0.24084186355148      1.71379372071822     -0.00074523615425
  C   -1.54561377903541      1.95945719855948      0.00424994866260
  C   -2.66687051940737      1.14623338276482      0.00526941801528
  C   -2.76686727124820     -0.25366832312466      0.00105676888297
  N   -4.01581332376530     -0.79488094233134      0.00447092738905
  H   -4.15207459739013     -1.78664048962010     -0.00276977245491
  H   -4.83268305335083     -0.21614627854957      0.00501031491496
  C   -1.68682665920855     -1.15362317787590     -0.00578361421417
  H   -1.91978906390863     -2.21251392418372     -0.00855629460961
  H   -3.60879145645122      1.68411664841259      0.01025302877795
  H   -1.77128022011387      3.02257628119607      0.00839307252124
  N   2.93199390635894     -1.86870269138056     -0.02331451148268
  H   3.81415828820815     -1.39093687029131     -0.02907583620478
  H   2.91383204656685     -2.87174935917108     -0.03161208420001
