27
Coordinates from ORCA-job ./opt_b97-3c_parallel
  N   4.03990975522037      1.69593040229017     -0.37442726260028
  C   2.97359988394475      1.24299629957838     -0.24662772668392
  C   1.68125196146149      0.70686093884015     -0.08508224483825
  C   0.64271767932229      1.66034588658141      0.07958167832908
  N   1.02257335562540      2.95574226976995      0.19950385090893
  H   0.34714762193535      3.68068192667928      0.05558761562196
  H   1.98411009914480      3.21407108367023      0.06457364821477
  C   -0.73367222578119      1.37392821867036      0.12516177165314
  C   -1.42095074780080      0.11254725445011     -0.07781030009356
  C   -2.79243447325509      0.46757490461862     -0.09948884601469
  N   -2.98324013804659      1.77939177505676      0.12052703845224
  C   -1.75903114649759      2.31924624957720      0.26113209753160
  H   -1.67071143217502      3.37864757541971      0.45261941573484
  N   -3.88783716528244     -0.38280764495564     -0.25777830172734
  H   -3.88135406777148     -0.87828350963265     -1.14014795147574
  H   -4.74178776452069      0.15279461348991     -0.18132262511410
  C   -0.91365924998456     -1.19375065042229     -0.00451590657748
  N   -1.80397800677417     -2.21814284136255     -0.00689762280422
  H   -1.47900905697436     -3.14318716195914      0.21793286950598
  H   -2.75735498241064     -2.00056889425046      0.25250460709731
  C   0.46533638754533     -1.54301718329932      0.07791070349080
  C   0.73043614949092     -2.91771047268049      0.23028437695212
  N   0.94637154963219     -4.05664185358467      0.35179866692356
  C   1.61542810675671     -0.71537194760950     -0.02587201231822
  N   2.80341919071394     -1.35728935827471     -0.07305516160703
  H   3.66892926817190     -0.84909991311491     -0.05920806246350
  H   2.85127363670929     -2.35985805494602     -0.05682604599790
