17
Coordinates from ORCA-job ./opt_b97-3c_parallel
  N   3.10726805282643      2.12159637359247      0.17421752730178
  C   2.24048484854702      1.34815506304242      0.12826389118142
  C   1.27777610308638      0.33704379164915      0.07237089674431
  C   -0.10529838217000      0.42950868356539      0.02581930814312
  N   -0.80397773481469      1.55235306789977     -0.02779029193922
  C   -2.12712922402781      1.57171263852829     -0.11030479403105
  N   -3.06575206692789      0.62992892390553     -0.00154529512985
  C   -2.87873209633776     -0.67944562573988      0.09585388137419
  N   -1.81331675380018     -1.47715372534205      0.00181435352191
  C   -0.57783185847569     -1.01988022974708     -0.04746777324256
  N   0.46809374895464     -1.84499083466231     -0.09211928520990
  C   1.57100071497141     -1.06558200287833     -0.01999042930428
  N   2.78380922809073     -1.59573788825188     -0.03893138491000
  H   3.60627310356577     -1.02171002292827      0.02402373633843
  H   2.88389001104521     -2.59288121705213     -0.11729055685731
  H   -3.80039393718843     -1.23061569384483      0.25500456727806
  H   -2.53337124544512      2.56674828636374     -0.26049794865903
