24
Coordinates from ORCA-job ./opt_b97-3c_parallel
  N   -3.49726063155841     -2.17832012668038     -0.08973969949005
  C   -2.72335977751635     -1.30670801984532     -0.05085337150858
  C   -1.82400584264822     -0.24565690208476     -0.00695175806292
  C   -2.15480985619461      1.14105843273207      0.02969141581129
  N   -1.07475077301814      1.93743220303966      0.05500703032496
  C   0.00445803496365      1.11594294824492      0.03737999652327
  C   -0.41570282203663     -0.30075882545201     -0.00534821143649
  C   0.36768725388882     -1.42990012719264     -0.03444063796914
  C   1.76577066289284     -1.52255327170735     -0.02849895913915
  N   2.28964220048733     -2.80350586678547     -0.11671091341124
  H   3.22572540395600     -2.92747085010838      0.22813222967270
  H   1.67640857949107     -3.54852236482740      0.16523198909742
  C   2.68867168991817     -0.47487659442129     -0.00256995587911
  C   2.50047626303662      0.90473822173768      0.03190250845717
  N   3.64501066058237      1.68442542024336      0.10880276236815
  H   3.54442842703895      2.64057688805184     -0.18430398379610
  H   4.49309325938386      1.26642598268661     -0.23264395920845
  C   1.28549890193172      1.60919570881985      0.05531554422429
  H   1.34870061464564      2.69040390520579      0.09624522134940
  H   3.72787895680160     -0.78896336470078     -0.01225579780813
  H   -0.16942157483516     -2.37208096112724     -0.06971349950226
  N   -3.39862999438757      1.64694129070278      0.07237195942653
  H   -3.50804919615362      2.63529858840931     -0.06470364382552
  H   -4.18461265086990      1.05488059055901     -0.12470495091800
