24
Coordinates from ORCA-job ./opt_b97-3c_parallel
  N   -0.07249988407262     -3.67135343027811      0.00943546030872
  C   0.12990457050939     -2.52547632536669     -0.00945456081405
  C   0.40535731390603     -1.14003378817148     -0.01962858755004
  C   1.77960063354016     -0.77076881869146     -0.04004565382058
  N   2.33870470996766      0.43286899977659     -0.01081702413466
  C   1.77692261651264      1.63207382902586      0.02888161056637
  N   2.69799696579808      2.65578220913778      0.12456989017997
  H   3.63590374605138      2.39169169764300     -0.12374618505841
  H   2.41766079909372      3.56709520554318     -0.19124425597211
  C   0.42323036818424      2.01646482616777      0.02763270453389
  C   -0.68906446489673      1.21291874610642      0.00402028267722
  C   -2.01777611074226      1.64142931524912      0.01219456645176
  C   -2.83797348749681      0.50322374835209      0.01009146486566
  N   -4.18913478299324      0.49852815128586     -0.01879669387736
  H   -4.68804316461152      1.34560073370853      0.18252677857673
  H   -4.67866688579957     -0.35395639811456      0.18303406935816
  C   -2.03540412984295     -0.67258905427876     -0.00327692305336
  C   -0.71220297750359     -0.28938097390808     -0.00741188176324
  H   -2.40520324557682     -1.68498378417377     -0.01784731197003
  H   -2.34908783089398      2.66753391113154      0.02181134500781
  H   0.23610677925861      3.08454550625284      0.06529120852699
  N   2.70151241609038     -1.78009412244496     -0.14306572831777
  H   3.64276239069566     -1.51597145409864      0.08553068423906
  H   2.43133352562216     -2.72141115245405      0.08188771083928
