25
Coordinates from ORCA-job ./opt_b97-3c_parallel
  N   -4.34140192911988     -1.58575374622272     -0.00395369777847
  C   -3.30009324823085     -1.06412897727667     -0.00365617498363
  C   -2.07318386215593     -0.40043033273064     -0.00349225641252
  C   -1.92261011352120      1.00228129608347     -0.00460830042609
  C   -0.52948495488506      1.31292143513010     -0.00417539833804
  C   -0.11751515084306      2.64919944494029     -0.00549138309235
  N   0.05196976699355      3.80086856338796     -0.00694582889409
  C   0.20323326782513      0.10975762294239     -0.00275402385411
  C   -0.78720378896205     -0.98851378791356     -0.00238591395843
  C   -0.55848140752283     -2.34542305284261     -0.00128275937090
  C   0.66371163089890     -3.00843109590524     -0.00029803558121
  C   1.94261113285824     -2.51008021735525     -0.00003679446390
  C   2.40678700888312     -1.18137307944021     -0.00060080858560
  N   3.75491477929546     -1.02509340553255      0.00001188481789
  H   4.18323825281670     -0.11709362448386     -0.00002516990141
  H   4.35755311150831     -1.82431202685620      0.00123643285031
  C   1.60060181524741     -0.00287121274256     -0.00176219919775
  C   2.36022996039722      1.19507971889635     -0.00174610372772
  N   3.10745405864075      2.08477503880980     -0.00129884937663
  H   2.72779046104838     -3.25726289883039      0.00079420763835
  H   0.59872323856774     -4.08948306665243      0.00037720525272
  H   -1.44281832040755     -2.97083278108250     -0.00124956468222
  N   -2.90407723623138      1.90317264689373     -0.00576093049590
  H   -3.86649574237702      1.61730225936517     -0.00669620125329
  H   -2.69620974742412      2.88658865261815     -0.00715740898500
