23
Coordinates from ORCA-job ./opt_b97-3c_parallel
  N   4.38018602078894      1.16665221291987     -0.02250783166368
  C   3.31437950333350      0.69632580413025     -0.01422613848736
  C   2.06062274541844      0.08842857629222     -0.00426240163447
  C   1.81161881223481     -1.31423111196473     -0.00631299833928
  N   0.49380254264631     -1.60577180415510      0.00118557800828
  C   -0.15689982729763     -0.43123609820073      0.00855957805742
  C   0.79402531569578      0.69976040911264      0.00394876766718
  C   0.51359669686788      2.05019957854845     -0.00038216885980
  C   -0.74187075347063      2.64360621935891      0.00511741051138
  C   -2.00183615381752      2.08396939372006      0.01902528039048
  C   -2.41142723281211      0.74061482614791      0.03038657336408
  N   -3.75407619625785      0.51383056074235      0.09388953472768
  H   -4.38245935527288      1.26912459685905     -0.10515766169722
  H   -4.11278232789329     -0.41236680254641     -0.06124608473734
  C   -1.55436094461480     -0.39604391680318      0.01680715037953
  C   -2.20566826794446     -1.65647170240495     -0.00019237377390
  N   -2.85374131121619     -2.62008950377988     -0.02156207544425
  H   -2.81756710746339      2.79777524172587      0.03320074417864
  H   -0.73447325340132      3.72680932772128     -0.00240519078106
  H   1.36583905209202      2.71862108225359     -0.00968144691726
  N   2.73107229350602     -2.28032949964530     -0.01642519577483
  H   2.43546834355174     -3.23932396633363     -0.00692310013620
  H   3.71130660782659     -2.06772237679855     -0.00949166873803
