29
Coordinates from ORCA-job ./opt_b97-3c_parallel
  N   2.91874056967467      3.23420423852877     -0.64481455713940
  C   2.19679491048976      2.34301711860170     -0.43225900762704
  C   1.32394485804259      1.27285106553322     -0.16473045349345
  C   -0.04791074807552      1.62348469189504      0.00498133524719
  N   -0.33729899779581      2.95568080497780      0.04401156707340
  H   0.39031373792491      3.60334434836607     -0.20836665296657
  H   -1.27079848702450      3.22713762964639     -0.22783762446104
  C   -1.10408466235702      0.71644452019314      0.12352672626642
  C   -1.10058471594237     -0.72158214127167     -0.12415428078107
  C   -2.47002457326149     -1.05697886459549     -0.23732788794264
  N   -3.27782438607769     -0.00764211805882     -0.00159630453481
  C   -2.47521408036611      1.04545358435858      0.23508811081909
  N   -3.03374219899424      2.29444178986923      0.46843432838534
  H   -4.03932641040126      2.22443085157829      0.52875105950356
  H   -2.66218083636933      2.76102904586780      1.28419696755324
  N   -3.02244475133137     -2.30856703432752     -0.47131909931032
  H   -4.02827700786694     -2.24323583333274     -0.53275898101740
  H   -2.64782103587781     -2.77337045200842     -1.28670234295478
  C   -0.04033124799706     -1.62369240397552     -0.00436864646982
  N   -0.32346985112052     -2.95721387885887     -0.04373240538876
  H   -1.25604143678814     -3.23300125691298      0.22695225866490
  H   0.40683164161372     -3.60150232542882      0.20950707296809
  C   1.32968181012241     -1.26666342533775      0.16693803451557
  C   2.20720311138141     -2.33275465326303      0.43545801503152
  N   2.93303839254657     -3.22057937725290      0.64883631736396
  C   1.94676555896743      0.00453923267436      0.00145453549947
  N   3.29745163853567      0.00768170529851      0.00223114985794
  H   3.81367887921981      0.86738810868556     -0.04263643759232
  H   3.81762161682826     -0.84961709994998      0.04762978192968
