19
Coordinates from ORCA-job ./opt_b97-3c_parallel
  N   1.88670343832939      3.50764973554201      0.10759632413644
  C   1.37254585249044      2.46558003604735      0.08210125109408
  C   0.86214044007778      1.16344561359907      0.05285649945863
  C   1.68781263277027      0.00106470754057     -0.00209360595606
  N   3.01089696226799      0.00191150582492     -0.00287146429342
  H   3.52755562936367     -0.86001725625064     -0.05200549352115
  H   3.52650425735945      0.86449470214609      0.04581310291596
  C   0.86356196840099     -1.16237010833742     -0.05610234718507
  C   1.37559581951956     -2.46385116850500     -0.08592548036613
  N   1.89104523505739     -3.50526960182148     -0.11192106325204
  C   -0.47154168447275     -0.75894393550125     -0.02082815231853
  N   -1.49375804421634     -1.58967046143219      0.04016379458403
  C   -2.76180391123034     -1.18721475426086      0.11083307474240
  N   -3.35424319883539     -0.00215531882484      0.00076374482577
  C   -2.76344363410718      1.18366039362469     -0.10996123690796
  N   -1.49583067961813      1.58773406272025     -0.04072047795941
  C   -0.47248725425249      0.75831085310230      0.01910414270211
  H   -3.46135672115718      2.00128951125581     -0.25646288393445
  H   -3.45850739114712     -2.00573113166939      0.25812217153484
