25
Coordinates from ORCA-job ./opt_b97-3c_parallel
  N   4.16972904003695      0.38395077035557     -0.01496824577835
  C   3.04498525048753      0.08637821713367      0.00265549563960
  C   1.68792589925047     -0.30514149623169      0.01390497548936
  C   0.74897568384494      0.73836728121864     -0.00878248231437
  C   1.01522442122983      2.09351803946388     -0.01904200823394
  C   -0.24636741824221      2.73472270866340     -0.03928306175497
  N   -1.28825832011476      1.86766155474253     -0.04569936071383
  C   -0.74264846295157      0.64418901489482     -0.02990250647824
  C   -1.54034460103334     -0.49293393274815     -0.03867540620284
  C   -2.94068468659607     -0.27580245115267     -0.04574260911465
  N   -4.10136461024687     -0.22036114960105     -0.04034732536701
  C   -1.11452296324193     -1.85822519461283     -0.02602805206165
  N   -2.10382941471263     -2.80083594403002     -0.10133378111808
  H   -3.05439094459808     -2.52064032838764      0.06949084666471
  H   -1.88190247988455     -3.74429237453960      0.15652683900265
  C   0.19021053214302     -2.33248116665185      0.01972168764267
  C   1.43450354749043     -1.69917267515106      0.04095210582165
  N   2.52446726881302     -2.52920635487855      0.14199762898734
  H   2.40763259295624     -3.48415556864939     -0.14335388071913
  H   3.43293737615513     -2.14591155522932     -0.05691556747776
  H   0.25650328028519     -3.41504708966266      0.04098346700339
  N   -0.48346092269197      4.05029743375531     -0.05738748820361
  H   0.25900398435428      4.72145190956773     -0.01918551133439
  H   -1.43411027990455      4.37287493239271     -0.04057394538002
  H   1.98505063887153      2.56154786783831     -0.00813954879850
