21
Coordinates from ORCA-job ./opt_b97-3c_parallel
  N   -3.59632022232974     -2.49849777400699      0.00001092529665
  C   -2.64955462987429     -1.82932671849919     -0.00002639735424
  C   -1.44909844055276     -1.06695442350515      0.00003931907811
  C   -1.55607668265892      0.32232234108612     -0.00020497635256
  N   -2.71359507773924      0.98918507289756     -0.00050640084029
  C   -2.33252204145342      2.28792869076283     -0.00066042081992
  N   -1.01438893995340      2.54163815801822     -0.00050639818030
  C   -0.45481211653873      1.31564140714101     -0.00020191857798
  C   0.92170968620590      1.14170568593315      0.00004336965686
  C   1.70328243364473      2.32743078389696     -0.00003555178124
  N   2.45291800632837      3.21335805935970      0.00007891154870
  C   1.65804394826290     -0.07952829185628      0.00034703360412
  N   2.99958770619478      0.00430206521789      0.00052866504271
  H   3.46104874920607      0.89743279256038      0.00045634691166
  H   3.57414641355511     -0.81997475426471      0.00072328948638
  C   1.07262524030814     -1.38441740758822      0.00047025909420
  C   2.01143053825698     -2.45171885156898      0.00074636323551
  N   2.82185595536573     -3.28298791797791      0.00082307205885
  C   -0.25623062611856     -1.79133682011841      0.00033720811291
  H   -0.38507546221962     -2.86453405924634      0.00048661960403
  H   -3.06043038829002      3.08541087005836     -0.00090490262416
