24
Coordinates from ORCA-job ./opt_b97-3c_parallel
  N   -3.25716059369369     -2.74577737323713      0.03270832379070
  C   -2.33971354663981     -2.03144229799422      0.04260653374471
  C   -1.27127512437338     -1.10071726347535      0.04517503720569
  C   0.00035378083308     -1.65391036988298      0.07823090515342
  C   1.27178975184411     -1.10027350067064      0.04512888522962
  C   2.34055094812131     -2.03062859055312      0.04248770681116
  N   3.25823419548810     -2.74465768829079      0.03242453007318
  C   1.63818624566672      0.27901988501779     -0.01771447261090
  N   2.96200118635092      0.54405521895630     -0.06415458559824
  H   3.62688203428414     -0.20268384289163     -0.16430898630419
  H   3.28467039277949      1.46864671091480     -0.26948472095113
  C   0.73221112803118      1.35548989962053      0.01947418055456
  C   1.13054601078623      2.70556426614541      0.05118492674301
  C   -0.00054340208353      3.51648639883377      0.07671379545937
  C   -1.13135458052130      2.70517497402277      0.05119366801734
  C   -0.73255749243734      1.35523692368182      0.01948355730981
  C   -1.63815837321485      0.27844979138849     -0.01767424005095
  N   -2.96205969144377      0.54301351356991     -0.06410764024058
  H   -3.28509588568215      1.46751688459836     -0.26924574263968
  H   -3.62671006887123     -0.20395196482023     -0.16408274304461
  H   -2.14193075033710      3.07922940648146      0.09850481501113
  H   -0.00072954399673      4.59412582987005      0.12468040923880
  H   2.14099439309746      3.07996176824060      0.09850393185765
  H   0.00054300471218     -2.73508402002600      0.11639419904017
