22
Coordinates from ORCA-job ./opt_b97-3c_parallel
  N   4.40492881975242      1.63652512377155     -0.00330516490692
  C   3.34611966321687      1.15856007198353     -0.00239764129188
  C   2.09247473760790      0.49575714483218     -0.00169783583630
  C   2.15098493231809     -0.93171157246992     -0.00251120161796
  N   1.13241675128210     -1.79832166429252     -0.00099177376379
  C   -0.15243000636713     -1.56617625519241      0.00025912662035
  C   -1.08918255713642     -2.62441363853682      0.00157481260006
  C   -2.35123608171689     -2.08796088337702      0.00195420391818
  C   -2.29034064177450     -0.65567531150026      0.00111716267085
  C   -3.44171911209372      0.14528678474634      0.00116457226060
  N   -4.44440213554700      0.73272557207621      0.00081961073807
  C   -0.94952617956151     -0.27505165618082      0.00018655544854
  C   -0.39170824384229      1.00357911167484      0.00025370893618
  C   -1.24223890689664      2.14556750064066      0.00134471351308
  N   -1.86498639952751      3.12395083072604      0.00238595178370
  C   0.97161682847832      1.31581109964811     -0.00049597562928
  H   1.19237210281216      2.37357332509365     -0.00006895265314
  H   -3.27943654240530     -2.63752945849964      0.00270124646281
  H   -0.81810058407022     -3.66577585170763      0.00181390863870
  N   3.36015041940446     -1.53077186425204     -0.00478518422126
  H   4.22153598998114     -1.01566534942677     -0.00551357667182
  H   3.38487635578568     -2.53367255615726     -0.00440543019882
