21
Coordinates from ORCA-job ./opt_b97-3c_parallel
  N   -3.24141016564241     -3.04106737115925     -0.29799978035482
  C   -2.23445449801040     -2.46866313129160     -0.21714360222757
  C   -1.02101840951106     -1.77194614002163     -0.12326077951550
  C   0.24853754261821     -2.31090486770473      0.00896431881999
  C   1.22259069166453     -1.28160718447368      0.11241530880100
  C   2.59574108095401     -1.54262311974306      0.24153070843314
  N   3.71508262626424     -1.82944391541710      0.35892143886487
  C   0.57053963987563     -0.04502741235514      0.04413864527428
  C   -0.90163871493635     -0.34876680004997     -0.07244067615343
  N   -1.93981391108115      0.42918220867665     -0.06675559014094
  C   -1.92163632267178      1.77646493826857      0.02346079537007
  N   -3.12574980170270      2.31309133790706      0.27710734578647
  H   -3.93011867025526      1.71614363510953      0.33992992012893
  H   -3.23171913376292      3.31075666573771      0.28603284863992
  N   -0.93563870717048      2.66731790596846     -0.15988353876125
  C   0.35004502599361      2.42877205079004     -0.21090756671677
  C   1.10106883264478      1.23768950417007     -0.04977672856126
  C   2.50672646391350      1.44021250163876     -0.05665243088321
  N   3.63815201610410      1.69677874423197     -0.07126598159222
  H   0.95003894448939      3.31367493951418     -0.39622543374786
  H   0.47910459012247     -3.36354939999687      0.03652029653617
