24
Coordinates from ORCA-job ./opt_b97-3c_parallel
  N   -4.60547008389329     -0.49557265165589      0.00565601965281
  C   -3.45198997080873     -0.34792588707884      0.00338240453681
  C   -2.05957880930010     -0.08643448852174      0.00107298639807
  C   -1.23918048817505     -1.21712866519349      0.00066613193775
  C   0.14259053627463     -1.34539386085327     -0.00179887605601
  C   0.64305269994462     -2.67634926230869     -0.00022557263360
  N   1.08049403955116     -3.75192177706881      0.00223148098998
  C   1.10924110341048     -0.32017680037469     -0.00364634391502
  C   0.83009142388357      1.15093891329171     -0.00158352472934
  C   2.07060852138700      1.79711330561241      0.00120066880556
  C   3.07351104623825      0.81937949976426      0.00096936977494
  N   4.40503284611277      1.03695133406323     -0.02985311447181
  H   4.76463316050723      1.95738877986183      0.14347895041369
  H   5.03515464856994      0.27685493078506      0.14845796576835
  C   2.47401502350676     -0.47609465834873     -0.00422413269276
  H   3.00535090332256     -1.41411771834555     -0.01012905809944
  H   2.22181565301616      2.86487713757072     -0.00047097411437
  C   -0.38658489227835      1.79217631377413     -0.00044875645361
  C   -1.69591997784634      1.28861294064220     -0.00020786071761
  N   -2.69908082656878      2.20915876931687     -0.00094708475419
  H   -2.49306314622522      3.18836419598147     -0.00043221459685
  H   -3.66404924385134      1.93422256081516      0.00053293761235
  H   -0.32227604904436      2.87610033283807     -0.00056277911729
  H   -1.78002699333355     -2.15312262936741      0.00224835336160
