23
Coordinates from ORCA-job ./opt_b97-3c_parallel
  N   4.56746531268125      0.59743836543928      0.01915192414130
  C   3.42142539283248      0.40518743689370     -0.00302101084946
  C   2.03710588490850      0.09567329630119     -0.02075953060736
  C   1.18724662148506      1.19491934360967     -0.01130805683727
  C   -0.20426180686911      1.29298113813531     -0.00640083018682
  C   -0.73581177676299      2.61288337028627      0.00219479768176
  N   -1.12132285758375      3.70688041049854      0.00850408979994
  C   -1.12229559656119      0.23496181190655     -0.00371644712090
  N   -2.43576308461620      0.42886773283490      0.00545372898838
  C   -2.99755991494885     -0.81911224054555      0.00335714436339
  N   -4.33231704444335     -0.92216436035288      0.02778296413947
  H   -4.87777950429035     -0.08247941277363     -0.04904733865467
  H   -4.79306904267990     -1.80529886879472     -0.07844513703589
  C   -2.04328843157505     -1.85035655336329     -0.00649209842118
  C   -0.80174812157594     -1.22180654609069     -0.01197206162241
  C   0.43513968150899     -1.84038003801055     -0.02949566151307
  C   1.71944999018676     -1.29870541501651     -0.03594850857061
  N   2.76351510558901     -2.17924467850473     -0.10466054809853
  H   2.59000487401701     -3.14150750960193      0.11873158298972
  H   3.69600019055343     -1.85458508321127      0.08451858739152
  H   0.39922430981612     -2.92503488574913     -0.04755445703552
  H   -2.22826861969619     -2.91201346099368     -0.00854928647935
  H   1.69911972862429      2.14711236270318     -0.00122466426244
