23
Coordinates from ORCA-job ./opt_b97-3c_parallel
  N   4.80016011372221      1.80681457827287      0.00133082134378
  C   3.73766538206379      1.34191635099014      0.00091318983256
  C   2.43127818491775      0.77193295929989      0.00044950643479
  C   2.38310528484869     -0.62077224349231      0.00021120177356
  C   1.27799105789973     -1.46836234494123     -0.00020115565472
  C   1.56710879866407     -2.86320005624648     -0.00027319612651
  N   1.86164613617557     -3.98431519336723     -0.00014084321956
  C   -0.08035829771663     -1.11374024654704     -0.00049142747911
  N   -1.02555008324117     -2.05642237059131     -0.00086897633911
  C   -2.21019087062638     -1.41109104586396     -0.00105000841008
  N   -3.36268350006770     -2.06598315322669     -0.00142307075454
  H   -3.36083252992104     -3.07091591526665     -0.00156940729351
  H   -4.24051129239233     -1.57647527885480     -0.00154498224644
  C   -2.05208643624504      0.01583246092703     -0.00078893149318
  C   -3.15067947845701      0.88134587042184     -0.00089776268721
  N   -4.15713361612087      1.46349567919503     -0.00106929243657
  C   -0.67635865495011      0.24321799929576     -0.00043176024456
  C   0.00264835510758      1.47592357978987     -0.00006844645755
  C   -0.77681229953703      2.66848771216829     -0.00007453915868
  N   -1.36439088749445      3.66812229310594     -0.00007897649598
  C   1.37562829924557      1.69178894677025      0.00031979779080
  H   1.67416253483436      2.73027843638554      0.00056748915112
  H   3.34247971659042     -1.11795495662469      0.00038569527064
