19
Coordinates from ORCA-job ./opt_b97-3c_parallel
  N   -4.12887370509384     -1.39000043406170     -0.31866207972145
  C   -3.11864821331041     -0.82529060929458     -0.22406520708636
  C   -1.91002450986127     -0.12235528564226     -0.11355709460336
  C   -1.78219724923235      1.28528268176394     -0.03027119849006
  C   -0.45030008662332      1.66368817370857      0.11718614239325
  C   0.05090300236182      2.97066624650646      0.19650835977442
  N   0.47307302230680      4.05046352678821      0.26456508859021
  C   0.34225835794230      0.48130663036687      0.09653460299425
  N   1.63655153645876      0.47474366410641      0.08267449057576
  C   2.37846322224445     -0.66193533070377     -0.00923419627056
  N   3.67269796531869     -0.42410417799294     -0.26752357910419
  H   4.32038498147667     -1.18984590735110     -0.29641958543957
  H   3.99906069412583      0.52196429003658     -0.34208777645195
  N   2.05832488315093     -1.94836636327186      0.17056122033844
  C   0.84954486565613     -2.47162232678072      0.24285621539892
  N   -0.38088299687583     -1.97681713497649      0.08018281973518
  C   -0.63361632362254     -0.69067504769704     -0.01043848394919
  H   0.85521776856291     -3.53714889213737      0.44527628183851
  H   -2.61264463778571      1.97167678773283     -0.07670077762225
