19
Coordinates from ORCA-job ./opt_b97-3c_parallel
  N   0.27204430589539      4.46533603273610      0.00023221476798
  C   0.20164294792329      3.30822404411562      0.00021226077727
  C   0.11482672669212      1.88338086184653      0.00015363328907
  C   -1.18751965767390      1.37372843073446      0.00034469746863
  C   -1.61674354577057      0.04844645774067      0.00034985698461
  C   -3.02698427447144     -0.15344698572733      0.00052033135496
  N   -4.18128244877808     -0.25616159523512      0.00059059981912
  C   -0.80689393012268     -1.09147711590433      0.00016581156091
  N   -1.29423208663983     -2.33862342618648      0.00019281437205
  C   -0.18979595987965     -3.11332780485172     -0.00004744931824
  N   1.00060964256206     -2.47849083111813     -0.00023967689108
  C   0.66834487679533     -1.18142869843411     -0.00010932952611
  C   1.61065208034834     -0.14828211218894     -0.00021804538516
  C   2.98594416251396     -0.51995142405754     -0.00050740394129
  N   4.11917069845733     -0.76230070314012     -0.00078356631317
  C   1.34563628838810      1.21928083635095     -0.00009095988851
  H   2.21560327794560      1.85993299742313     -0.00020524610035
  H   -0.25542784949444     -4.19060352876617     -0.00009245907164
  H   -1.97323454329091      2.11530746466257      0.00050623684096
