21
Coordinates from ORCA-job ./opt_b97-3c_parallel
  N   3.93337088528774      2.23706363717125      0.03808833451920
  C   2.94059018610992      1.63468345171271      0.02499083109142
  C   1.71757752096834      0.91187171151589      0.01008111538495
  C   0.53840685346125      1.68865649196917     -0.00272895768334
  C   -0.75598752915887      1.25350657826781     -0.01053362759455
  C   -1.27068718398490     -0.14219296709109     -0.00407168831040
  C   -2.68637640508588      0.02004120807299     -0.00399616262416
  N   -3.03879725433503      1.32525735809660     -0.02045833489073
  C   -1.90912822764762      2.04891575676916     -0.02596866888328
  H   -1.94576768962149      3.12794935588479     -0.03386736851599
  N   -3.64008676291384     -0.93923204180899     -0.04224539086825
  H   -4.57821442077915     -0.62677036771930      0.14104340315063
  H   -3.42377591992266     -1.86329953813964      0.28394393937613
  C   -0.56399136381913     -1.30329857541474     -0.01422293917052
  C   0.84278960461055     -1.47349621736543     -0.01111230166171
  C   1.30087935025817     -2.81757750604640     -0.02142211792575
  N   1.65463380132491     -3.92394979188538     -0.02791300629664
  C   1.82411251751002     -0.48212005613820      0.00352787518396
  H   2.83986163484797     -0.85533346425812      0.00839366752593
  H   -1.12670760108326     -2.23002492845933     -0.03289181454887
  H   0.68439712167294      2.76246085646623     -0.00704996565803
