27
Coordinates from ORCA-job ./opt_b97-3c_parallel
  N   -5.69137958046802      0.00037252587671      0.38663818209439
  C   -4.53461525675231      0.00031939677870      0.27807865599023
  C   -3.13535458602296      0.00026283192889      0.14072200381303
  C   -2.31709781202691     -1.13772977860210      0.07484169595712
  C   -0.98037192407880     -0.72433855235083     -0.01294293969725
  C   -0.98019737412026      0.72459367411836     -0.01178024119867
  C   -2.31682288229743      1.13816279264859      0.07669540884385
  H   -2.69141893894671      2.14462439013703      0.16070644755846
  C   0.11301386571777      1.61857675483827     -0.10654153369254
  N   -0.17239264705584      2.92909339666878     -0.26458863837061
  H   -1.09421852852902      3.20983356367601     -0.53455558275418
  H   0.55822650554327      3.61124784518631     -0.36296596478858
  C   1.48219196213882      1.27753841247276      0.02683748875615
  C   2.37668570777476      2.36729136066295      0.00943393098157
  N   3.10781132878670      3.27357099364961     -0.00916203324697
  C   2.09268467819820     -0.00038032234083      0.15292885412506
  N   3.42685544339853     -0.00071942044847      0.37184416590261
  H   3.95080957134558     -0.85720104882466      0.34895008748883
  H   3.95101829518551      0.85567017053708      0.35032654724675
  C   1.48188216329581     -1.27794386118314      0.02476689721607
  C   2.37609884136751     -2.36789384036979      0.00558107647752
  N   3.10698635854327     -3.27433405177015     -0.01448244991201
  C   0.11262181132232     -1.61843252786808     -0.10914682552338
  N   -0.17310058403351     -2.92862331772915     -0.26931573439243
  H   -1.09499743104273     -3.20871077480477     -0.53971840129684
  H   0.55735418015091     -3.61079308714147     -0.36880140409075
  H   -2.69193850319447     -2.14423582574665      0.15721623841258
