29
Coordinates from ORCA-job ./opt_b97-3c_parallel
  N   -3.31511752011578     -3.50601363373457      0.37053045652024
  C   -2.59520737188159     -2.59804488851627      0.25456396208934
  C   -1.76704826580053     -1.46484892084626      0.10735262763947
  C   -0.39853929381394     -1.71689579924793     -0.04500382201530
  C   0.65439729824521     -0.85109435907187     -0.11335485652508
  C   0.65666012871975      0.60965060249105      0.03847633301488
  C   2.00184628477167      1.00261418285342      0.15538802082300
  C   2.83207971434649     -0.14239727608206     -0.00337387853325
  C   4.22654846747320     -0.13910697159549      0.04966475534955
  N   5.39071950365329     -0.12899626205792      0.09331007920720
  C   2.01555408602268     -1.27267639627911     -0.18546148211200
  N   2.47256741122990     -2.54664237073183     -0.29329545332847
  H   1.89468984152150     -3.22126570484292     -0.76097603070206
  H   3.45635349503449     -2.66517814112202     -0.46531514778079
  N   2.50707257066413      2.27194751363843      0.33720651104078
  H   2.00954067908638      2.83442086184402      1.01052197526381
  H   3.50179278710258      2.29484083300778      0.50476330605995
  C   -0.44844888646917      1.46264942204223     -0.07533176341964
  N   -0.19928916687448      2.80410855427561     -0.15842946418288
  H   0.68040765188622      3.08013017701499     -0.56365644832503
  H   -0.97019837583572      3.41478932557552     -0.37272560117763
  C   -1.82586515902150      1.07969375973644     -0.09490242679588
  C   -2.73923365852078      2.13643138945775     -0.26761731790608
  N   -3.49935551443028      3.01045263452620     -0.40383349273555
  C   -2.42695255011649     -0.20249919270178      0.07682756357356
  N   -3.76922611385741     -0.23009387434983      0.18186484805972
  H   -4.31374166945766      0.61299433279632      0.14375387714071
  H   -4.26109261556542     -1.10575982932870      0.21940669054119
  H   -0.15499221709684     -2.77242168405144     -0.06600194678393
