25
Coordinates from ORCA-job ./opt_b97-3c_parallel
  N   4.01359411899249      1.62269549707642      0.03710557279290
  C   2.99676834179914      1.05133354015768      0.03943806420099
  C   1.80050932844070      0.30778252791988      0.03074427900861
  C   0.60546411470175      1.05397631161690      0.02321454773998
  C   -0.69803728513224      0.65298893893964      0.00209622041017
  C   -1.21665625817065     -0.73241795982074      0.00788384684830
  C   -0.46846045779383     -1.88387400386331     -0.01362857700374
  C   0.90844773072475     -2.06451258474688     -0.01956445661749
  C   1.94036040357550     -1.11627972033902      0.01194535768837
  N   3.20963454471519     -1.60320534694027      0.05981658665132
  H   3.99093801356870     -0.98403928000611     -0.07031823833241
  H   3.36829642298033     -2.57385635561862     -0.13402560830280
  H   1.24037064792737     -3.09576810009578     -0.02922114395211
  H   -1.02733108130024     -2.81486515455862     -0.04519024424822
  C   -2.62530345510081     -0.63550724636455      0.01828619482443
  N   -3.51913685755419     -1.68407234073840     -0.03428278537047
  H   -4.44178103915486     -1.46640009759146      0.30353591350309
  H   -3.18761975188346     -2.55150908525249      0.35314573855224
  C   -2.98720898106428      0.72232503006672     -0.00292584714925
  C   -1.83434929558354      1.51054726299981     -0.01771561292542
  N   -1.81305908059575      2.88611543585959      0.03334917123257
  H   -2.65048950058532      3.33557743603916     -0.29670048702801
  H   -0.99008446851068      3.32386118531660     -0.34522497916387
  H   -4.00072726937518      1.09700480688539     -0.00754276556840
  H   0.77770136237914      2.12477343805848      0.04259597370930
