26
Coordinates from ORCA-job ./opt_b97-3c_parallel
  N   -4.81791699702754     -0.51003757161955      0.21265032635384
  C   -3.65583710003791     -0.49852620122079      0.13723852336515
  C   -2.26150251202778     -0.41127000419764      0.05263716714931
  C   -1.33746749743841     -1.47267723733811     -0.01888283967351
  C   -0.05011640268509     -0.94383459866941     -0.03008420889597
  C   -0.16910371470450      0.50868619584448      0.00996834915185
  C   -1.54699788002059      0.80683180577938      0.07138279140572
  N   -2.13904154833001      2.07309245887707      0.09188272508503
  H   -3.14606459042016      2.01278374606741      0.15004187955333
  H   -1.79834090229493      2.65602057743264      0.84429847264181
  C   0.87123190075479      1.45824918774823     -0.13218499956846
  N   2.18483328598068      1.28407777580141     -0.03305676862914
  C   2.85077845156270      0.14039078512216      0.09126235200071
  N   4.20359190670107      0.33772683091078      0.23923677641816
  H   4.46409177861153      1.27994027404442      0.47327862583992
  H   4.74434245226932     -0.38429097668806      0.67987712351709
  C   2.43213870457384     -1.19485048144618      0.00339199469480
  C   1.14459272836971     -1.70416562189880     -0.07395090043796
  N   1.02513692081555     -3.07074265962883     -0.12890787595957
  H   0.16988039948502     -3.43845450617492     -0.50342814640953
  H   1.83925571731519     -3.58373859490044     -0.41677554388018
  H   3.23181784139421     -1.92695636809274     -0.00286366934411
  N   0.52538448036208      2.76210645083559     -0.34256722313472
  H   1.28890781619605      3.35801086050759     -0.61181192308588
  H   -0.38016029110724      2.95392694852434     -0.74474142900325
  H   -1.62458639649754     -2.51071659751999      0.00643610434559
