25
Coordinates from ORCA-job ./opt_b97-3c_parallel
  N   4.45030668129649      0.73977567619323     -0.01999726471014
  C   3.28968359264350      0.65296939391053     -0.01115334467175
  C   1.89921922980302      0.47825627684532     -0.00295638504673
  C   0.91490289862846      1.47988034117711      0.02642913781964
  C   -0.34300098492470      0.87675237808893     -0.01954651941826
  C   -0.12969536982489     -0.57693567263090     -0.04891798403541
  C   1.26563674086837     -0.78027855487496     -0.05599235560503
  N   1.93977316902549     -2.02252148008267     -0.07798287921727
  H   2.91735627557037     -1.90157539642010      0.15191043371927
  H   1.89624607777489     -2.45547857871217     -0.99297655686081
  C   -1.09313974696934     -1.61281989333078      0.02465455037552
  N   -0.65111110457030     -2.89970612353679      0.11370090882068
  H   -1.31339534063301     -3.59589124562775      0.40497668233753
  H   0.31328260823871     -3.04025282041461      0.39203195705828
  C   -2.48556051245641     -1.43809830286783     -0.02374560796704
  C   -3.21739145121367     -0.27426230005733     -0.10344599979408
  C   -2.84087779770024      1.05714597871203     -0.11788316201028
  C   -1.55965871691743      1.60360270097344     -0.04142090782459
  N   -1.48555691462206      2.97399788714608     -0.04867478763702
  H   -2.32470313739534      3.47181346259434      0.18918405739171
  H   -0.65140114625613      3.39923432403406      0.31116318961054
  H   -3.65449657002394      1.77160953596830     -0.16585306364760
  H   -4.29033315339961     -0.42888582010937     -0.13973933622199
  H   -3.06561815784498     -2.35336114771641      0.00537899764121
  H   1.14482378580270      2.53185350643823      0.01988350539359
