27
Coordinates from ORCA-job ./opt_b97-3c_parallel
  N   -3.04758238421106     -3.34937689129834     -0.29214623625008
  C   -2.27016042287276     -2.48627863278434     -0.20229003594306
  C   -1.36936203820945     -1.40744948290605     -0.08669114996752
  C   -0.01233662773702     -1.74521039245358      0.03002556837370
  C   1.07864756340309     -0.93203338555494      0.07562085581110
  C   1.16181676103188      0.52006684259828     -0.05855801096107
  C   2.54370368691698      0.77789587339758     -0.15818191964802
  N   3.29687376094946     -0.34066224461545     -0.03023813160796
  C   2.44388629095713     -1.36113663947256      0.12340089925422
  N   2.90528320591091     -2.63550022945812      0.21861244013926
  H   3.89125226231238     -2.71521824103438      0.40049804103917
  H   2.33760614800446     -3.30960282346253      0.69937903697912
  N   3.17624978841790      1.99156868457333     -0.32411632652279
  H   4.16624827350909      1.87129473328208     -0.47804686750454
  H   2.76257317535244      2.59034487430385     -1.02304479341237
  C   0.12440310198190      1.44602727452419      0.05314767935999
  N   0.46266025129666      2.76820975586958      0.11674196597044
  H   -0.26108172885807      3.43091507016569      0.34066000455738
  H   1.36795352149067      2.98638023784118      0.50071753607222
  C   -1.27529944006631      1.14763815318150      0.08282310320262
  C   -2.12173385873479      2.25887784504294      0.24350041411591
  N   -2.82430230647435      3.18171031449734      0.37143455451980
  C   -1.94834516306343     -0.10430575907880     -0.05737081610145
  N   -3.29225748613630     -0.05338170529373     -0.13599799387021
  H   -3.83514084029145     -0.89886028340928     -0.15676322037576
  H   -3.78449072502294      0.82112780864170     -0.09658377534587
  H   0.17366927014285     -2.81270636399700      0.05174390201574
