22
Coordinates from ORCA-job ./opt_b97-3c_parallel
  N   -4.39561456494338     -0.75351532722375      0.11875179989837
  C   -3.24331339155102     -0.59464444960046      0.07693654810528
  C   -1.86778039824378     -0.33776207047485      0.03308330387051
  C   -0.81921907147227     -1.29399003844907      0.05896924711514
  C   0.39499588595278     -0.63271607144783      0.04031785488542
  C   0.10622889628001      0.81171312180192     -0.00983083645414
  C   -1.30999978803474      0.95289306047368     -0.00967246551254
  N   -2.02203559372586      2.12113399891922     -0.10693194394988
  H   -1.60665485197083      2.93352168024391      0.31545089110547
  H   -3.00168108946149      2.04080027953747      0.11385708976779
  C   1.00705985250532      1.84932299869961     -0.05572578701052
  C   2.39317751583365      1.77087073687526     -0.00922579349303
  C   3.17292241351870      0.62539141758460      0.09629107516830
  N   2.89166843993590     -0.66813265203317      0.09989155081860
  C   1.67789117019328     -1.23504812600202      0.03154047927851
  N   1.75086466958746     -2.58754741690558     -0.00981616459396
  H   0.96752737154420     -3.13851046974999     -0.30457891622539
  H   2.67018207928941     -2.97627671410073     -0.12278115624854
  H   4.24190908449037      0.81207479364837      0.17146068517855
  H   2.94110870534897      2.70348093782293     -0.03503777022990
  H   0.59671330097598      2.85124948382581     -0.13345416648566
  H   -0.99358540185269     -2.35521959494534      0.12604512371163
