23
Coordinates from ORCA-job ./opt_b97-3c_parallel
  N   -3.71452742150948     -2.01244377563578     -0.12711514678394
  C   -2.73156088932017     -1.38826939274123     -0.09095136113483
  C   -1.57688712423906     -0.58142052430095     -0.03925749031823
  C   -0.34114807557076     -1.23290705481510     -0.04887978656185
  C   0.91052435973473     -0.68422026384485      0.00923218067294
  C   1.28558424969824      0.72150850505578      0.05134705295768
  C   2.67556874829047      0.71578201897574      0.09000850263014
  N   3.19961923340745     -0.53483901951690      0.08890518717401
  C   2.16019829994515     -1.38064515885655      0.03895495033930
  N   2.36513922910083     -2.72874128519580     -0.03161432159163
  H   3.29906556272591     -3.00870718294306      0.21883925176398
  H   1.65166006182245     -3.32623639542692      0.34710702372934
  H   3.34448895581783      1.56255265635336      0.15051564376646
  C   0.40943798107259      1.82542600332191      0.00742314214131
  N   -0.92327823060892      1.84669971641111      0.03555944607457
  C   -1.78865707810892      0.83883141520221      0.05421720384707
  N   -3.06987186687592      1.25067207636032      0.15648073862479
  H   -3.24332815869351      2.23834219042444      0.17015274960093
  H   -3.84206030804679      0.60932560567851      0.13805933912658
  N   0.94518657698233      3.07346205967923     -0.02692768126078
  H   1.89684871883879      3.20340128202171     -0.31336711511756
  H   0.30372914280281      3.82598582561715     -0.20190821806612
  H   -0.40605289376450     -2.31329795482378     -0.11174065501464
