26
Coordinates from ORCA-job ./opt_b97-3c_parallel
  N   5.24050468129592      0.17157432778090      0.01427743533029
  C   4.10491429005356     -0.08183591873747      0.03272890008466
  C   2.72199370185641     -0.30778199309338      0.04442420161072
  C   2.05040617854771     -1.53406743978553      0.12863642694303
  C   0.67501490866403     -1.29387322713651      0.05186284212569
  C   -0.27671533502866     -2.30627688817523      0.03515586892464
  C   -1.64028324967821     -2.22411154801660     -0.05958967908292
  C   -2.45861207506451     -1.07855267783073     -0.09093270516424
  N   -3.79077407217505     -1.31923970517505     -0.21275950010850
  H   -4.46076883836389     -0.57889127720420     -0.09901395559535
  H   -4.13140680730515     -2.25307847791559     -0.08373438189544
  C   -2.05598104248128      0.28263804631627     -0.00299540220401
  C   -3.11421333136476      1.20905830057227      0.07689022039260
  N   -3.99706138223729      1.96710787727104      0.14373580102952
  C   -0.74470828213177      0.85131749424804      0.03581697385707
  N   -0.67827705531476      2.20021065236114      0.14087321799813
  H   -1.51002331882528      2.72447003619911      0.35068848341632
  H   0.20683944063226      2.60737440605149      0.41079579463901
  C   0.47630264498559      0.14899659727507     -0.04719359502854
  C   1.76043393744983      0.72939372840112     -0.07761274317741
  N   2.07349961021388      2.09092055601664     -0.17340567509105
  H   1.75752707231780      2.50578094965970     -1.04045236117414
  H   3.06738269789337      2.25269291062830     -0.08325565807129
  H   -2.17265635272195     -3.16615381133625     -0.10518100801077
  H   0.12601135122092     -3.31173823216942      0.09138720451574
  H   2.51690773176140     -2.50252631250518      0.20160978523618
