24
Coordinates from ORCA-job ./opt_b97-3c_parallel
  N   5.39531159561301      0.56609255543358      0.00207524947616
  C   4.25836012256035      0.32610711969123      0.00219413518256
  C   2.88148539741073      0.04047503164882      0.00231293396122
  C   2.30157453689290     -1.23565832030490      0.00418409955348
  C   0.90850279129490     -1.08600151361480      0.00281569708603
  C   0.02000791605217     -2.15787152728792      0.00215988150437
  C   -1.34674794673558     -2.15983617891652     -0.00082124988862
  C   -2.23901715037234     -1.06830525466099     -0.00268213200131
  N   -3.55436617600849     -1.39576168808129     -0.00623863525740
  H   -4.27817170032941     -0.70017239944407     -0.00509422876659
  H   -3.83531887264437     -2.35676716161237     -0.00365779125791
  C   -1.91854977221033      0.31722080383032     -0.00086016771838
  C   -3.03395940843869      1.18005910858573      0.00014122390926
  N   -3.95995954413265      1.88664737905793      0.00115954941706
  C   -0.64867183226691      0.96677736435868      0.00075838950897
  N   -0.67238962944365      2.31665045785000     -0.00046114343385
  H   0.17803232162477      2.84225814496702      0.01424796309899
  H   -1.53374155231335      2.83177536184076      0.00816898108578
  C   0.61908497065039      0.34018842900692      0.00061039161321
  C   1.85087983215301      1.00311122261377      0.00005929653353
  H   2.04082979132038      2.06435423018961     -0.00326707113165
  H   -1.82096422879493     -3.13355270882975     -0.00184652657570
  H   0.48532773114046     -3.13746180853303      0.00360433298528
  H   2.83523844267763     -2.17181962858875      0.00569778131550
