22
Coordinates from ORCA-job ./opt_b97-3c_parallel
  N   -2.39586584116758     -3.28070693880622     -0.00063132407340
  C   -1.64344885641716     -2.39422268314188     -0.00059903325069
  C   -0.77793080178185     -1.27243017712740     -0.00036729590054
  C   0.58640437954967     -1.56828619768505     -0.00045197391856
  C   1.67993544346851     -0.73311948958839     -0.00028496038684
  C   1.68002811158093      0.73298061608245      0.00000147839786
  C   0.58660356696692      1.56828650883887      0.00022836792846
  C   -0.77776921433922      1.27260463280189      0.00022508422411
  C   -1.64314396392156      2.39450762920279      0.00054904578749
  N   -2.39544691100361      3.28108864366301      0.00081370362217
  C   -1.42891451983290      0.00012862349179     -0.00005591591545
  N   -2.77459839040953      0.00021354356947     -0.00003508968447
  H   -3.29249898131227     -0.86095310895275     -0.00014556811611
  H   -3.29239108569596      0.86144498600009      0.00024556329326
  H   0.81031775419727      2.62877144991542      0.00045997239359
  C   3.02605133110983      1.13882908953601      0.00003717216636
  C   3.83545013402796     -0.00020504621595     -0.00019658301035
  C   3.02590784607478     -1.13913719144868     -0.00038957370344
  H   3.36507308243379     -2.16349304168757     -0.00059183302902
  H   4.91439243424900     -0.00027318946535     -0.00022319665159
  H   3.36534522647323      2.16314230337964      0.00022430754378
  H   0.80998346164972     -2.62879964506221     -0.00069083121662
