23
Coordinates from ORCA-job ./opt_b97-3c_parallel
  N   -5.39189993350239     -0.51119900406483     -0.08029368090827
  C   -4.25175507512721     -0.28992168003825     -0.05585149274417
  C   -2.86952261582647     -0.03073332652725     -0.02521784037927
  C   -2.26630933631402      1.22822749944296      0.03755415450634
  C   -0.87233709477906      1.04592948567803      0.03738375983865
  C   0.03183228433057      2.10063840110118      0.07314759329564
  N   1.34352628403486      2.13082635856740      0.03113000911172
  C   2.16760449120752      1.07220686970422     -0.02485466312078
  N   3.45878478352241      1.45108941820763     -0.11385894576706
  H   4.22251160995625      0.80044742173754     -0.14025683158318
  H   3.64667398044254      2.43634607384294     -0.08102425293225
  C   1.90038431033642     -0.33240867300954      0.01515327913084
  C   3.04037962228200     -1.16068751601224      0.04078389117667
  N   3.98241530240291     -1.84534675648513      0.06177948928700
  C   0.65215724488940     -1.00922582328806      0.00710922399253
  N   0.68580505191774     -2.35657280050592     -0.00018003676007
  H   -0.15648376129974     -2.88276327150521      0.12393795982924
  H   1.55316072756487     -2.85742670090282      0.07739584474473
  C   -0.61577130486933     -0.38160322945365     -0.01762992544392
  C   -1.85436576261718     -1.01740965725745     -0.05711070602556
  H   -2.06080985972528     -2.07398482326311     -0.11818295244564
  H   -0.41693728785790      3.08959403723380      0.13411794740991
  H   -2.77931919136893      2.17514211529777      0.06905543568689
