19
Coordinates from ORCA-job ./opt_b97-3c_parallel
  N   -3.56797657080915     -1.70312792712331     -0.00111482421563
  C   -2.53242426973285     -1.17343633643480     -0.00101353176265
  C   -1.31006858865840     -0.46141873533000     -0.00065340696582
  C   -0.14368468341686     -1.21792095278669     -0.00109409095670
  C   1.15984677929299     -0.77068745937679     -0.00086229140156
  C   1.61254085080799      0.61283718050149     -0.00009030795578
  C   3.01265182841007      0.52754507396251     -0.00014926010825
  N   3.44111544160215     -0.75112333898533     -0.00086579998558
  C   2.33987495241082     -1.52937837288734     -0.00129197958057
  H   2.41954750400174     -2.60669554033365     -0.00189503878736
  H   3.71459200969555      1.34856784321615      0.00030556178493
  C   0.83800168911565      1.75975993087401      0.00054311585351
  N   -0.47129303982094      1.92855782618570      0.00063389731155
  C   -1.41914581243760      0.97942301723355      0.00011825106517
  N   -2.65990285296661      1.49390597257928      0.00038844077918
  H   -3.48609688316242      0.92228261165637      0.00013218918562
  H   -2.74482194552115      2.49452371040290      0.00096229335545
  H   1.38564066558861      2.69984669911483      0.00106136559222
  H   -0.28847166429962     -2.29210657366889     -0.00168720350775
