25
Coordinates from ORCA-job ./opt_b97-3c_parallel
  N   -2.92167333663202     -2.81191054573846     -0.02885744826429
  C   -1.93124644853757     -2.20705457032606     -0.01490940574250
  C   -0.66572392869354     -1.55817957983483      0.00050592039442
  C   0.42535894951244     -2.44814747832805      0.00855186297816
  C   1.77544994882875     -2.22864849272068      0.02396360370846
  C   2.51263050639391     -1.03070142498968      0.03032981869691
  N   3.86967881919977     -1.15791958434352      0.09348795398780
  H   4.45616743565149     -0.35845134598004     -0.07157463249965
  H   4.27877027782435     -2.04808307535194     -0.12054472692563
  C   1.96243496708103      0.27319722013927      0.01597050976051
  C   2.91159016031636      1.32544239943720     -0.00402525303823
  N   3.72492200218977      2.15528761053150     -0.02771853093666
  C   0.61475630152813      0.67875153489805      0.01333440253749
  C   0.21426877006767      2.00737493472592      0.00957671781186
  C   -1.18850874816576      2.05608275010264      0.00327438970005
  N   -1.95769196728934      3.14685093806066      0.00012215230447
  H   -2.96000964866206      3.06366402948299     -0.00247897807843
  H   -1.56044657345509      4.06715076584268      0.00207899806685
  C   -1.70516442350575      0.72036111218655      0.00124712996494
  C   -3.08443316669409      0.49827988280469     -0.00681505785496
  N   -4.24879173916060      0.49759468744603     -0.01303294501047
  C   -0.61806035812860     -0.16562869257071      0.00682103042192
  H   0.86985225292753      2.86190770148712      0.01371898446498
  H   2.37876599576792     -3.12856981316275      0.04069276273402
  H   0.14010943073527     -3.49154657339857      0.00236392451800
