20
Coordinates from ORCA-job ./opt_b97-3c_parallel
  N   -4.28977219733493     -0.76114766309694     -0.00070412567096
  C   -3.13380106332676     -0.66693279418380     -0.00064935429960
  C   -1.71278758144994     -0.63601523997764     -0.00034717277401
  C   -1.06191689154151     -1.88224639074855      0.00017439136811
  C   0.27111955919134     -2.20100522706890      0.00058267515899
  C   1.43585185987156     -1.40465290324900      0.00061979115571
  N   2.61959003959221     -2.05904435754776      0.00065379882997
  H   3.49274610545914     -1.56220847402198      0.00201595747512
  H   2.65389817559405     -3.05997068051113      0.00261958313228
  C   1.46132735450378      0.01741346762156      0.00031602808679
  C   2.74967044445203      0.61263219757196      0.00068527712240
  N   3.85664810973770      0.96228679610829      0.00100218371668
  C   0.37255434414083      0.88422234842380     -0.00023318108460
  N   0.52744740821189      2.21992373311243     -0.00050969160446
  C   -0.73652033861395      2.68659414427366     -0.00099997702153
  N   -1.73052190466435      1.77894900970936     -0.00106484841632
  C   -1.08317257527700      0.60201880102055     -0.00058146540279
  H   -0.94276222504627      3.74666441230151     -0.00133104767100
  H   0.46949337223163     -3.26652048344718      0.00085425251787
  H   -1.72824293253143     -2.73429723699025      0.00028693108136
