21
Coordinates from ORCA-job ./opt_b97-3c_parallel
  N   4.32441959467751      0.52806478521324      0.00393728078972
  C   3.18711430924672      0.29116055563010      0.00247878080475
  C   1.79736614130960     -0.00242590446912      0.00118946035499
  C   0.92055811252047      1.08133984938742     -0.00078629698745
  C   -0.45936683561767      1.07465479866577     -0.00105064764858
  C   -1.23952044168974      2.25180770095178     -0.00176291203423
  C   -2.57948107534204      1.89729667849811     -0.00012500720008
  C   -2.68494071388578      0.49576185417275      0.00121602611526
  C   -1.40200750204275     -0.05744880856743      0.00043460539051
  C   -1.08382094510962     -1.42656532369887      0.00026229806252
  N   -2.09559915346640     -2.32909718688165      0.00138546950983
  H   -1.91017956102790     -3.31301615348760     -0.00872339966091
  H   -3.05322785560317     -2.04068098875590     -0.01137207969785
  C   0.22056568183526     -1.97435114692231      0.00143126001152
  C   1.44681317129113     -1.36531186611437      0.00220435435562
  H   2.28918716047217     -2.04564099555832      0.00332718258982
  H   0.25557845128038     -3.05807067722306      0.00217865765157
  H   -3.62398279928787     -0.03713345423631      0.00364952595140
  H   -3.41426800070674      2.58144157329676      0.00045322383075
  H   -0.83746175688380      3.25269550072557     -0.00280371219846
  H   1.38313316353026      2.06126159957347     -0.00169873329067
