21
Coordinates from ORCA-job ./opt_b97-3c_parallel
  N   -2.30794152572887     -2.72699858821145     -0.02425830868784
  C   -1.42339098531798     -1.97657749360146     -0.01114145806659
  C   -0.26168346272368     -1.15380410425070      0.00554961431872
  C   0.94707942741371     -1.88114541040897      0.02574713843928
  C   2.24380421251259     -1.44320577871832      0.04249274430951
  C   2.74547463885012     -0.12457867226249      0.03371685737452
  N   2.07346713319345      1.02715167951480      0.03149206488435
  C   0.77374499617101      1.20928730890952      0.02722830021298
  C   0.21212069279384      2.49825498507963      0.03001612535319
  C   -1.16123419737642      2.38222157358658      0.00772327451373
  C   -1.54951102692338      1.01355625655213     -0.01013837929583
  C   -2.89110197363380      0.60578790615097     -0.03701878483864
  N   -4.02461832739471      0.34929178176251     -0.05999809746754
  C   -0.38656504309669      0.22898866969886      0.00289872822105
  H   -1.86857286706540      3.19681041519877      0.00322621329541
  H   0.79095031158187      3.40551670843037      0.04470516596415
  N   4.10243052261023      0.03518385639664      0.07454765245024
  H   4.70378292583573     -0.72170323952142     -0.19363890378934
  H   4.44150509679974      0.96364241065945     -0.10544420648720
  H   2.99354589550050     -2.22554189530855      0.06883656920572
  H   0.82346511109812     -2.95549227355689      0.03056410219009
