24
Coordinates from ORCA-job ./opt_b97-3c_parallel
  N   -4.48539033694103     -1.84997889447958      0.00026992969787
  C   -3.67670764889306     -1.01488630531302      0.00017456973113
  C   -2.70633929579631     -0.00610736067361      0.00016105596418
  C   -2.92686965445695      1.38474888605448      0.00022598541153
  C   -1.71863273543776      2.08092686524376      0.00042820169716
  C   -0.67424488055261      1.15749731794583      0.00044535001719
  C   -1.30869988470248     -0.21898242389838      0.00040562451298
  N   -0.77541583606348     -1.40678231407094      0.00084816109549
  C   0.52007428467379     -1.73311829314594      0.00117012294994
  N   0.70526782731250     -3.07154840349490      0.00267222090551
  H   1.61042684697662     -3.50397102153828      0.00180483963442
  H   -0.11779888962691     -3.64605872478609      0.00203726846778
  C   1.67616848456374     -0.89557977506696      0.00008697038818
  C   2.90804477443372     -1.58291513519964     -0.00026933542228
  N   3.92248076181448     -2.15317425760446     -0.00054058750390
  C   1.77807536434646      0.51705462050534     -0.00043208974639
  N   3.01755943846279      1.05364467100839     -0.00159462554830
  H   3.15068456477448      2.04870488026225     -0.00132621884514
  H   3.83759782321522      0.47467927219513     -0.00117217719271
  C   0.68363748888195      1.43748522010772      0.00004235445726
  C   1.03702199002823      2.81039409478491     -0.00018937120561
  N   1.36272743420625      3.92537536454278     -0.00037573729200
  H   -1.60854561344393      3.15201917012527      0.00038896832524
  H   -3.90531919717575      1.83965278269590      0.00012812520047
