23
Coordinates from ORCA-job ./opt_b97-3c_parallel
  N   -4.57202039812977     -0.10363284949210     -0.01259315596853
  C   -3.46256617424328     -0.45185670897093     -0.01504121110605
  C   -2.12983209076065     -0.87925264619285     -0.01497850273414
  C   -1.66712804547807     -2.20818664720355      0.01099899230573
  C   -0.27420051385383     -2.24857169225293      0.01594055070528
  C   0.21091023942105     -0.94049324171109     -0.00952719476979
  C   -0.99932664460730     -0.02714266028660     -0.02726442598136
  N   -1.09543940087587      1.27269477544737     -0.03380840452906
  C   -0.08816489233121      2.15675879070502     -0.04198665929293
  N   -0.53686252034320      3.44958859395463     -0.08079144889852
  H   0.06664464045988      4.19881962970083      0.20343878698406
  H   -1.51717668905463      3.56832705601080      0.10666619859497
  C   1.29597308612739      1.95277893641396     -0.06016107586797
  C   2.05377536759751      0.78832737577276     -0.05224295195146
  N   3.41257575664708      0.92754605275445     -0.12831511685838
  H   3.81255201788496      1.82266366351879      0.08302335054531
  H   3.99973098819109      0.13852617527866      0.07900459469868
  C   1.54128894033221     -0.54684583970690     -0.02059500907363
  C   2.50767659620385     -1.58280996399847      0.01565235271975
  N   3.33044173496665     -2.40221013395999      0.05479955795652
  H   1.88140662051552      2.86511342455892     -0.10540581841082
  H   0.33055648325303     -3.13955483259261      0.03161527953670
  H   -2.31398797542240     -3.07172417954818      0.02544927419569
