24
Coordinates from ORCA-job ./opt_b97-3c_parallel
  N   -5.16774743574957     -0.71324390520148      0.00344975311809
  C   -4.00674273702634     -0.65273372860340      0.00242716651780
  C   -2.59905864737740     -0.50412244869291      0.00116291327561
  C   -1.85224205987272     -1.67686539713827      0.00015394805865
  C   -0.47950888946032     -1.86948189975442     -0.00118099307334
  C   0.49427417080969     -0.89413194571465     -0.00186885038650
  C   0.26156751865156      0.58036256664392     -0.00131584277391
  N   -0.85053973193255      1.27675838448150     -0.00006310148783
  C   -2.11017162673721      0.84824946138717      0.00108621528637
  N   -3.01610909302503      1.84747101323277      0.00237155524549
  H   -2.67021335508429      2.78962240992962      0.00197314666456
  H   -4.00598914902443      1.68283444025310      0.00291289240170
  C   1.52882261054214      1.19589728534702     -0.00242498796534
  C   1.80884965676321      2.56418071231528     -0.00239745808556
  N   2.11854639568488      3.68556554592457     -0.00242021004111
  C   2.52161532626129      0.18292410332604     -0.00361009759108
  N   3.83511636124326      0.38500809208035     -0.00485104396018
  H   4.47703756245197     -0.38809083110096     -0.00564339044985
  H   4.21178684049307      1.31682809256107     -0.00502346697681
  C   1.88273656980981     -1.09225983477651     -0.00326268478776
  C   2.56644994562576     -2.30877713918047     -0.00422008281448
  N   3.17182916976160     -3.30346714545154     -0.00513456459408
  H   -0.13900819131885     -2.89738918530204     -0.00175869052242
  H   -2.44492970538949     -2.58216380126577      0.00046287594196
