24
Coordinates from ORCA-job ./opt_b97-3c_parallel
  N   4.81510006335711      1.18779440574067      0.03445462408024
  C   3.69042412008415      0.89422554865631      0.00518542108284
  C   2.33757056413501      0.47267794959895     -0.01982530813210
  C   1.38824935934582      1.49882138493274     -0.01227213040159
  C   0.00790427843934      1.45606175608937     -0.01289328767728
  C   -0.81392849803689      0.34356097670919     -0.01441863506444
  C   -0.39656755204845     -1.07952915287057     -0.01695681538680
  C   -1.55909360720917     -1.85945989503598     -0.00796543898762
  C   -2.66959127927630     -1.01107579695478     -0.00192059318531
  N   -3.96826516287868     -1.35925276075121     -0.02378944283791
  H   -4.24094607937185     -2.31158602839643      0.12984157629795
  H   -4.67426516008873     -0.65685646720424      0.10893416626062
  C   -2.21433009975890      0.34986099497761     -0.00686189443615
  C   -3.06177912984029      1.45721285159169      0.01416287105093
  N   -3.81024262527398      2.35004221633266      0.03571539220960
  H   -1.59003093897722     -2.93741399332236     -0.01525889209692
  C   0.89002596739863     -1.58093595023130     -0.03381639734348
  C   2.13084725667003     -0.93599451814982     -0.03941369851761
  N   3.23902262861044     -1.74151068121802     -0.11539948815064
  H   4.13918492047003     -1.34503580173926      0.09424334188245
  H   3.13437841089314     -2.70465071971070      0.14573040789928
  H   0.94769593909251     -2.66499265291217     -0.05219095619924
  H   -0.49360694062032      2.41627950299901     -0.00728158778095
  H   1.81587671758453      2.49265956476861      0.00085700783416
