22
Coordinates from ORCA-job ./opt_b97-3c_parallel
  N   -4.87702302820799     -1.56717312255385     -0.00071102284046
  C   -3.76697032510435     -1.23003172409117     -0.00069483596828
  C   -2.40016487050604     -0.82757974423659     -0.00056650478482
  C   -1.46001889122707     -1.87376495347428     -0.00087465807926
  C   -0.08619973942874     -1.80466891451408     -0.00083418736874
  C   0.72079879216163     -0.67247733012551     -0.00048195542389
  C   0.32454583051825      0.74877289585509     -0.00005523231332
  N   1.39494315128888      1.54983193015689      0.00019648118177
  C   2.47827353577627      0.74235315995413     -0.00003826296750
  N   3.71152910564351      1.23914005045469      0.00011579932937
  H   4.51791505182275      0.64144917346051     -0.00001824466342
  H   3.84031726924787      2.23530253504257      0.00044792798623
  C   2.11885432127735     -0.64211278800823     -0.00045265736473
  C   3.01091099284179     -1.71588569175547     -0.00075702254607
  N   3.78836440133668     -2.58157527326721     -0.00083725752402
  C   -0.98059776274571      1.26345528188713      0.00009355797197
  C   -1.10542541502883      2.68240402645771      0.00054620156620
  N   -1.26182956251501      3.83109088662169      0.00102592669920
  C   -2.17960380503581      0.54836204154216     -0.00014699696468
  H   -3.07165868150369      1.15846436071547      0.00002734052175
  H   0.43705113293423     -2.75338060903244     -0.00111344715803
  H   -1.88266376144595     -2.86919025408925     -0.00118271358926
