28
Coordinates from ORCA-job ./opt_b97-3c_parallel
  N   -5.06609265061147     -0.40229585601343      0.06993509703678
  C   -3.90305470582160     -0.36291298379635      0.04129311086915
  C   -2.49308303484633     -0.33435792270182      0.00895870776277
  C   -1.87655241281880     -1.60918766282725     -0.01812798854300
  C   -0.49925923114743     -1.88075949407847     -0.02715189879897
  C   0.56884739253635     -1.03006967769231     -0.01119582558404
  C   1.91639207505167     -1.47365797892256     -0.00664836504133
  C   2.35596710373887     -2.79587256168789     -0.00778463019563
  N   2.73868703630851     -3.89641665705870     -0.00808680054362
  C   2.75199465331753     -0.34110936241496      0.00685268311049
  N   4.08136770979779     -0.33620262873539      0.01895715483760
  H   4.60144277145615     -1.19540281499014      0.01806732682770
  H   4.58962608150995      0.53157386107926      0.02889032385247
  C   1.93707656050081      0.83731708757930      0.00814178497458
  C   2.54347550658172      2.09624094831436      0.02896572429109
  N   3.20751357972947      3.05233926487771      0.04970514325870
  C   0.58661450083626      0.44938870540304     -0.00345587566467
  C   -0.52352325149316      1.29889992030801     -0.01940111352580
  C   -0.27520706718024      2.69369471133387     -0.04344955519844
  N   -0.20126882151409      3.85321167515148     -0.06697083236133
  C   -1.91436712817089      0.96584045837967     -0.00749937570230
  N   -2.77993878028251      2.00276808231309     -0.00520221125173
  H   -2.44977474309860      2.95126028402411     -0.00657866188995
  H   -3.77233515428613      1.85429085185236     -0.00989246146802
  H   -0.24099113978938     -2.93356941892345     -0.04676140343860
  N   -2.68320224648213     -2.69957296803573     -0.05449929125755
  H   -2.28807806841958     -3.61433107168221      0.05205697550284
  H   -3.67927694910273     -2.61954058345559      0.04582325604077
