21
Coordinates from ORCA-job ./opt_b97-3c_parallel
  N   -5.14789962399814     -0.00103702046735      0.00008174158390
  C   -3.98822357423002     -0.00078510744875     -0.00002852260590
  C   -2.56162027306380     -0.00049419292899     -0.00009133754181
  C   -1.96019015441292     -1.26506754464340     -0.00018076050222
  C   -0.61245600614594     -1.58305849420937     -0.00019733981277
  C   0.47831413614301     -0.73456996589738     -0.00010702397705
  C   0.47801970450452      0.73480523898292      0.00000426470778
  C   1.83392097652231      1.14318411822204      0.00011138477009
  C   2.27161832382268      2.47689808301390      0.00025203179815
  N   2.60157651980939      3.59072570883451      0.00035175198943
  C   2.64563020839860      0.00055060224918      0.00008464115713
  C   1.83437668808774     -1.14240806196932     -0.00007147115101
  C   2.27261150802121     -2.47594625079552     -0.00014663502319
  N   2.60302490729265     -3.58963827776405     -0.00016142034350
  H   3.72293827365748      0.00076522193312      0.00016610853826
  C   -0.61309141836699      1.58285391861627      0.00001646028202
  C   -1.96069838312339      1.26431961913108     -0.00002014737433
  H   -2.64372629230638      2.10228282143306      0.00003813645561
  H   -0.38142193935351      2.64184927329056      0.00008821166480
  H   -0.38035892978936     -2.64196093110354     -0.00025993076842
  H   -2.64288153516913     -2.10330539897898     -0.00022681294696
