22
Coordinates from ORCA-job ./opt_b97-3c_parallel
  N   -4.82056674566920     -1.05938526757697     -0.00610207448986
  C   -3.67885824111938     -0.83841863066354     -0.00443200683436
  C   -2.30552560106551     -0.49798813744868     -0.00226696454791
  C   -1.40435625560226     -1.56142290502763      0.00037040623008
  C   -0.02275996178623     -1.56173592379911      0.00292783125884
  C   0.79984543249317     -0.45182309062689      0.00357992481345
  C   0.37604948174137      0.98879336946923      0.00175808749835
  N   -0.82351585109191      1.51732159614552     -0.00111603034337
  C   -2.00754591272422      0.90615849051248     -0.00314703701268
  N   -3.04581701406839      1.76871197558512     -0.00655663577724
  H   -4.00282031684961      1.46697360558767     -0.00722993953213
  H   -2.83316183732678      2.74917120622434     -0.00608717076079
  N   1.45590732981170      1.79344846657663      0.00343107738230
  C   2.53082375776344      0.98775705455226      0.00609393440463
  N   3.76687195197155      1.47874434242924      0.00831529767698
  H   4.56900762259957      0.87526876050308      0.00996474574123
  H   3.90020872509978      2.47401308861247      0.00769974588979
  C   2.19246948360334     -0.40754874237865      0.00628383844021
  C   3.10239287815714     -1.46381639727085      0.00881408016683
  N   3.89684062385954     -2.31547052821521      0.01060760996095
  H   0.46107297782861     -2.53043619117835      0.00465789856055
  H   -1.86943670732573     -2.53858032681214      0.00043702377417
