26
Coordinates from ORCA-job ./opt_b97-3c_parallel
  N   -5.03915109681856     -0.07725180190346     -0.00011698860161
  C   -3.87489406130839     -0.04339755376826     -0.00006939784878
  C   -2.46794996819604      0.00649995583704     -0.00008133749951
  C   -1.79789738620060     -1.25900995191866     -0.00124913608938
  N   -0.49818260169209     -1.54602777442157     -0.00140349005412
  C   0.51607696006008     -0.71337313657294     -0.00072024228442
  C   0.54348106214065      0.77777459645715      0.00037821478716
  C   -0.52720257472804      1.62220462679580      0.00110351239844
  C   -1.90086045317869      1.30325605982450      0.00098771388879
  N   -2.74458684330077      2.36188418566743      0.00205534030759
  H   -3.74180166756043      2.24532679151462      0.00171642927325
  H   -2.38644609408056      3.29716546383856      0.00247818857396
  H   -0.29361543988942      2.68126630744333      0.00192239048298
  C   1.90391142302765      1.16801973106423      0.00057505226175
  C   2.39802457434276      2.47046619981690      0.00145985750032
  N   2.82554175205353      3.55482735237717      0.00177617278448
  C   2.70130422999468     -0.00175206094150     -0.00026014487928
  N   4.03080900335260     -0.03945842045301     -0.00034197819271
  H   4.51904807279619     -0.91770443815711     -0.00104333110032
  H   4.57156420585580      0.80708770287275      0.00012519796049
  C   1.85251646236955     -1.14746232842066     -0.00102407894065
  C   2.32073227165167     -2.46192821409270     -0.00200455580195
  N   2.78667792310982     -3.52862525572749     -0.00286752212751
  N   -2.57020253141148     -2.36868062344300     -0.00251217507914
  H   -3.57273013645735     -2.34014090459678     -0.00172498593088
  H   -2.09892010733257     -3.25441461609239     -0.00261569948895
