20
Coordinates from ORCA-job ./opt_b97-3c_parallel
  N   -4.31613668103068     -2.14597253054445      0.00073600764729
  C   -3.26997466742351     -1.64607758883089      0.00069908647125
  C   -1.97820007485828     -1.03976858102435      0.00052270231528
  C   -0.89724330074847     -1.93521710455125      0.00089686955514
  C   0.45432734293272     -1.65380673236318      0.00081979835987
  C   1.06871124409393     -0.41367754519116      0.00034414671037
  C   2.45293310495979     -0.15757761807503      0.00024749885432
  C   3.47389511072793     -1.11784164063988      0.00062346318439
  N   4.30396592985067     -1.93052874755446      0.00081021508878
  C   2.58649626204335      1.24648307984572     -0.00031690163020
  N   1.40647066959380      1.88392096238682     -0.00058070532094
  C   0.45881936403247      0.92802863805890     -0.00020771952220
  C   -0.90112377697505      1.24352824784361     -0.00033120860136
  C   -1.24343031399167      2.62775609305598     -0.00084778092229
  N   -1.59427771673913      3.73213621896177     -0.00118907058539
  C   -1.98022967189484      0.35534252197487     -0.00000311756846
  H   -2.95636990827774      0.81816904508583     -0.00019089150889
  H   3.51490190805408      1.79686800044684     -0.00053487549249
  H   1.11810559238583     -2.51067151307876      0.00117066469367
  H   -1.16558405323520     -2.98237357880696      0.00129019847185
