24
Coordinates from ORCA-job ./opt_b97-3c_parallel
  N   -4.97855796063884     -0.00672311913481      0.02315569664979
  C   -3.82599838122651     -0.16035386795700      0.00154047978706
  C   -2.41507375445996     -0.28246468816504     -0.01611500312636
  C   -1.92239747879247     -1.59742174498611     -0.00852103578979
  C   -0.63590017492469     -2.08308386890463     -0.00518334828244
  C   0.56059374506987     -1.37038032901017     -0.00229474471327
  C   1.83939952197311     -1.90698546847294      0.00662978180328
  C   2.77689077810453     -0.85207273628337      0.01239347209038
  N   4.11509074759596     -0.97079403209765      0.05137655998011
  H   4.54990422815851     -1.86141522398353     -0.09886310298207
  H   4.69173345272439     -0.15671529426556     -0.06794295832471
  C   2.07891442846980      0.38480263844116      0.00692411510690
  C   2.68507193802708      1.63937306933302     -0.00092954975705
  N   3.21907373143680      2.67560388808429     -0.00894555411427
  C   0.69122717546112      0.10640703531081     -0.00381404509810
  C   -0.29227938688849      1.06114501604860     -0.02602803168099
  C   -1.69247116975898      0.93769824749261     -0.03488317778783
  N   -2.39847172167427      2.10587162641686     -0.10603243178874
  H   -3.38778478289069      2.09610416530331      0.07237680206770
  H   -1.92760526980472      2.96286984203748      0.11763249673749
  H   0.07204810463653      2.08359668292610     -0.04193442494781
  H   2.07989657261617     -2.95836879329873      0.01539882837528
  H   -0.54175352488861     -3.16250691559209      0.00008747502490
  H   -2.69809241332567     -2.35193098894260      0.00092819267055
