23
Coordinates from ORCA-job ./opt_b97-3c_parallel
  N   -4.93962306712523     -0.09099646904923     -0.00023728114358
  C   -3.79480455628160      0.11512977344577     -0.00016381950823
  C   -2.39187225235564      0.29572053487763      0.00014463875117
  C   -1.93821874580445      1.61678530946138      0.00025507288052
  C   -0.65503026618055      2.12475832953207      0.00068314336755
  C   0.53275132128340      1.40929193397135      0.00104670808851
  C   0.64015506323506     -0.09282839798450      0.00091301172431
  N   -0.27900123024755     -1.02701036233455      0.00068941491438
  C   -1.60583129757842     -0.90107505032176      0.00045192602119
  N   -2.25186002055734     -2.08962510656066      0.00059648788065
  H   -3.25217063984370     -2.16278631476790     -0.00005209480698
  H   -1.69199334567444     -2.92185885516760      0.00033909490348
  C   2.01418862984952     -0.39054618455630      0.00128044991644
  C   2.62007180610560     -1.64713694928173      0.00168325374315
  N   3.20349690470172     -2.65478345471896      0.00217767891459
  C   2.73295039912593      0.84047440819835      0.00174105555143
  N   4.06642794190907      0.92573205870035      0.00191961183114
  H   4.53457627672071      1.81196732319443      0.00425781739875
  H   4.63133526526831      0.09456727313428      0.00361459487720
  C   1.81987953563893      1.91773755395075      0.00154588683941
  H   2.08632878991099      2.96289663607029      0.00170392052829
  H   -0.56958040349750      3.20475741060552      0.00077644813919
  H   -2.72943219250278      2.35523085340103      0.00000598978742
