20
Coordinates from ORCA-job ./opt_b97-3c_parallel
  N   -4.45807489945357     -0.05125986735639     -0.00137319402403
  C   -3.30688489392460      0.09038456018803     -0.00095863044420
  C   -1.89157818101778      0.27245156537651     -0.00052692059022
  C   -1.45959647854371      1.60231726025737     -0.00027827178737
  C   -0.16126300755766      2.08965142019129      0.00015789651048
  C   1.03194538910651      1.39748915367282      0.00045952076800
  C   2.30583211036116      1.97183745889259      0.00093955129255
  C   3.25508630632091      0.94689848443674      0.00114510504931
  C   2.61381793287444     -0.30005564907454      0.00080798879528
  C   1.23815191890495     -0.08674242602942      0.00038887475741
  C   0.24399534471445     -1.06734621888028      0.00000061386540
  C   0.69448432176888     -2.42259200161106      0.00004071397271
  N   1.06378344124837     -3.52154927820379      0.00007721756910
  C   -1.14282185832333     -0.90853834764592     -0.00040446111072
  H   -1.71665458483940     -1.82362193635944     -0.00065086357362
  H   3.09713527511769     -1.26303172038025      0.00088020765147
  H   4.32516929669563      1.08975785472803      0.00151363957615
  H   2.50816307852158      3.03092279169146      0.00112561008403
  H   -0.07149246381059      3.17028873255113      0.00030056606026
  H   -2.24591980096390      2.34419853155509     -0.00044230982198
