19
Coordinates from ORCA-job ./opt_b97-3c_parallel
  N   -4.65519209399758     -1.01243239208099     -0.00125439688861
  C   -3.55716120525457     -0.63821631536873     -0.00074019540324
  C   -2.20704317092819     -0.18276203980520     -0.00029152855870
  C   -1.23566220686199     -1.20762026036120     -0.00070012873595
  N   0.08320258719451     -1.14858663078277     -0.00049117983257
  C   0.82565935971474     -0.06116054557880      0.00018065766436
  C   0.44733048783734      1.39760555402196      0.00089884691823
  C   1.63967662463917      2.12303700481572      0.00143613728757
  C   2.70953588073664      1.23142025911753      0.00110640174015
  C   2.23483613215663     -0.09663641428831      0.00035333264074
  C   3.02662656881791     -1.25528022125254     -0.00013822881427
  N   3.70443079699539     -2.19804695903559     -0.00045088687634
  H   3.75395722095895      1.50040116156894      0.00138385830649
  H   1.71570253526871      3.19856088161412      0.00201293251488
  C   -0.83251217178079      1.90782836111660      0.00100361992312
  C   -2.02762227213137      1.20188199301250      0.00047407976569
  H   -2.93351674775326      1.79233739599197      0.00066886034722
  H   -0.91968811894701      2.98849215015269      0.00156539453814
  H   -1.63140943536521     -2.21680685205789     -0.00128933383692
