23
Coordinates from ORCA-job ./opt_b97-3c_parallel
  N   4.96740700563700      0.06395893559633      0.00602457834086
  C   3.81236974184598      0.19648864105238      0.00402935916117
  C   2.39817720312577      0.28530464009731      0.00177284955457
  C   1.87639127280443      1.58080450998402     -0.00000363744675
  C   0.57642940589470      2.04629621708837     -0.00241298454635
  C   -0.59029917284819      1.29922785694828     -0.00373215649743
  N   -1.80847467298601      1.86363786408689     -0.00624942552674
  C   -2.69962107115527      0.84574857660976     -0.00711893104658
  N   -4.01287541640490      1.08247782651927     -0.00809418752434
  H   -4.34077557279840      2.03065573357635     -0.01654267739339
  H   -4.67886942178749      0.33252885221578     -0.01645885685887
  C   -2.07409474671242     -0.43196882217303     -0.00515916771725
  C   -2.71948254842524     -1.66652690705184     -0.00614881352351
  N   -3.28077535210753     -2.68761993290844     -0.00754911641553
  C   -0.68840842691816     -0.17691812677268     -0.00292632259667
  C   0.31233130587543     -1.12057391570193     -0.00056866803260
  C   1.70420846804850     -0.96248463032520      0.00162701177660
  N   2.44744052276163     -2.09840112947490      0.00397544147429
  H   3.45060788616690     -2.07151457121661      0.00471699782674
  H   2.00574681259442     -2.99702886042883      0.00290213392702
  H   -0.03181420274953     -2.14990834008334     -0.00035611413110
  H   0.43849990474817      3.11918782106981     -0.00340836733818
  H   2.63449349499018      2.35323630529227      0.00061224353402
