21
Coordinates from ORCA-job ./opt_b97-3c_parallel
  N   -4.78786201207120     -0.47912240093886      0.00234926219185
  C   -3.62740601780632     -0.46149926137942      0.00186241751229
  C   -2.20339385996699     -0.44529646097517      0.00074359120535
  C   -1.58108507777741     -1.69860785486525     -0.00038842746012
  C   -0.23582825841070     -2.01460588442735     -0.00166132688786
  C   0.85331436545309     -1.15698296531956     -0.00210099170702
  N   2.11065409873874     -1.61869166302832     -0.00360642246247
  C   2.91077454331457     -0.52161245755506     -0.00402130942929
  N   4.23967354060468     -0.66608588752671     -0.00314905993406
  H   4.63156390510100     -1.59023511756268     -0.01525574711712
  H   4.85744603228252      0.12236397539994     -0.01754092253687
  C   2.18086339670744      0.69446575851574     -0.00265244800086
  C   0.85274770797163      0.33114144718006     -0.00151938869734
  C   -0.27459306912498      1.18055029982619     -0.00012872543228
  C   0.00333632157861      2.57708428795259      0.00006410875894
  N   0.26109183109341      3.70840610214492     -0.00029993918944
  C   -1.61615754079008      0.82786707042606      0.00089750255866
  H   -2.31147017125532      1.65545663056909      0.00189557673469
  H   2.58030860233622      1.69489180792079     -0.00228200758006
  H   0.02041698268984     -3.06609316065485     -0.00231761004072
  H   -2.25792803076875     -2.54258537620215     -0.00021677878626
