19
Coordinates from ORCA-job ./opt_b97-3c_parallel
  N   -4.74831827721590      0.00190075798937     -0.00895857666314
  C   -3.58747307901999      0.00164447008346     -0.00519772578140
  C   -2.16374784650514      0.00111405756524     -0.00143954590566
  C   -1.55667923831978     -1.26413502476584      0.00025713938415
  C   -0.21883992912624     -1.59778668099392      0.00339934024557
  C   0.87594705541089     -0.73976117530620      0.00608682179183
  N   2.14706318042433     -1.15811541617882      0.00795874950305
  C   2.85907068855689     -0.00090470657866      0.00913149626929
  N   2.14796645358800      1.15684983809454      0.00780661923923
  C   0.87653479680777      0.73949174564017      0.00595906940387
  C   -0.21755404978558      1.59839072548189      0.00298574113409
  C   -1.55566191187991      1.26585562618969     -0.00012475269235
  H   -2.24373817355017      2.10097412804699     -0.00188579465633
  H   0.02625895699544      2.65306259779884      0.00341992632966
  N   4.19419226183389     -0.00141522034931      0.02527507841963
  H   4.69153934258786      0.86560978722661     -0.05020180404434
  H   4.69088782299966     -0.86882123840669     -0.05010690380204
  H   0.02407698557799     -2.65266854580344      0.00414193800436
  H   -2.24544122568005     -2.09869060523391     -0.00122980357945
