18
Coordinates from ORCA-job ./opt_b97-3c_parallel
  N   -3.35162313419447     -1.98972446012807      0.00031297659064
  C   -2.64425578979683     -1.06746518671753     -0.00001301160411
  C   -1.79316908535162      0.04474625907771     -0.00021870397041
  C   -2.17073560968953      1.39575396257853     -0.00065240792644
  C   -1.05308908141239      2.24180708888962     -0.00074868290029
  C   0.09531099906993      1.46684651251390     -0.00038534308399
  N   1.33192264902028      1.93104947537634     -0.00026953228812
  C   2.41000230803452      1.14748041917517      0.00013295264679
  N   2.60141466905453     -0.16153754691612      0.00039077833894
  C   1.67688042248284     -1.12657405111533      0.00036062386251
  N   2.16605445109547     -2.38067636187417      0.00049919665904
  H   1.53464664664629     -3.15976231477762      0.00066696702286
  H   3.15819797809510     -2.52469658116108      0.00075862098971
  N   0.31799563636485     -1.09530850374321      0.00024811951429
  C   -0.37554616363174     -0.00135904920546     -0.00005836201476
  H   3.33944626189147      1.70764037662089      0.00026078215154
  H   -1.06661238386621      3.31830821666251     -0.00102633157950
  H   -3.19783898361250      1.72814752724395     -0.00087672040870
