16
Coordinates from ORCA-job ./opt_b97-3c_parallel
  N   -3.64158986499994     -1.26247482907733      0.02875736262888
  C   -2.69112906572745     -0.59563240001720      0.01788973302797
  C   -1.56114965212890      0.23598510557506      0.00810684358221
  C   -1.57531949921951      1.65219551443474     -0.00662381043624
  C   -0.28385076168189      2.16685227477579     -0.01854254553668
  C   0.61881015298630      1.10434478606203     -0.00949277545099
  N   1.92610227252365      1.23010958879549      0.00256141559402
  C   2.76877114643061      0.19009318891067      0.01993425420864
  N   2.59516099927294     -1.12604006868802      0.00199481380212
  C   1.45300818509968     -1.80477829256437     -0.01843941640428
  N   0.16799199274630     -1.43481538898604     -0.00585758231104
  C   -0.22392915973845     -0.18462636520621      0.00281514764596
  H   1.58661279518083     -2.88022490400610     -0.04343196535808
  H   3.81063874804002      0.48923642512505      0.04736667972311
  H   -0.00539737189378      3.20692628510127     -0.02699066424517
  H   -2.48166923439049      2.23805482186518     -0.00784826507043
