20
Coordinates from ORCA-job ./opt_b97-3c_parallel
  N   -4.15580262506214     -0.33256223630955     -0.00056027252652
  C   -3.01049432450371     -0.51465567113187     -0.00052266500735
  C   -1.61693911850601     -0.80219939919672     -0.00044672330093
  C   -1.25928718031322     -2.15116745705776     -0.00054643330953
  C   -0.00237601468866     -2.73498066656986     -0.00049222224306
  C   1.25558119319757     -2.15342687370990     -0.00033260227585
  C   1.61565980131530     -0.80510334862019     -0.00017316068138
  C   3.00973033294088     -0.52007042410542     -0.00012455329564
  N   4.15536840602208     -0.34006029088130     -0.00016468519578
  C   0.74174540567030      0.29386235526160     -0.00012735213820
  N   1.15769968401362      1.55893562386060      0.00003220027433
  C   0.00212721881126      2.27559105376632      0.00000197692977
  N   -1.15473209233173      1.56101280992121     -0.00017304107359
  C   -0.74105249512720      0.29519542512278     -0.00025842773071
  N   0.00331939125190      3.60497644779457      0.00016053182096
  H   0.87285405984844      4.10492331755616      0.00016442988524
  H   -0.86531764198023      4.10648126132948      0.00000764226190
  H   2.08779491716245     -2.84451729816741     -0.00034468471346
  H   -0.00334790615711     -3.81703048527054     -0.00059980667291
  H   -2.09274174496378     -2.84076085999219     -0.00068656720729
