21
Coordinates from ORCA-job ./opt_b97-3c_parallel
  N   -3.36154122417608     -2.31483969869556      0.00187657398521
  C   -2.66350799788183     -1.38873595620042      0.00119328638005
  C   -1.87124651899440     -0.20548492793256      0.00072982103807
  C   -2.57759852107756      1.00491585097250      0.00024210619887
  C   -2.10718063551393      2.30380141849531     -0.00017797638932
  C   -0.79543435535691      2.77331153151410     -0.00023189017159
  C   0.38545714190926      2.05686796833863      0.00011732470037
  C   0.54764576860642      0.67772912741633      0.00059242377555
  C   1.76223669920704     -0.02318369948281      0.00096046836172
  C   3.05868083234970      0.49248750885609      0.00101163518678
  N   4.15527170491731      0.88324296332618      0.00135713124359
  C   1.41347282570698     -1.40776359144379      0.00137317786912
  N   0.07791147661457     -1.59718255731360      0.00131385099515
  C   -0.48071644340658     -0.37874787104713      0.00085634555396
  N   2.26041276163957     -2.43741207178633      0.00166064094024
  H   1.89591410754477     -3.37265711019785      0.00255992908362
  H   3.25378202766027     -2.29814293248686      0.00241898036006
  H   1.30169975128147      2.63600855196611      0.00000732756599
  H   -0.68706143429483      3.85072994599806     -0.00058951670240
  H   -2.87453395208790      3.06753561367965     -0.00050462593074
  H   -3.65390444444736      0.89667224682394      0.00021145205568
