18
Coordinates from ORCA-job ./opt_b97-3c_parallel
  N   4.00054681911968      1.04959598380037      0.00061095485223
  C   2.92851409445555      0.60410560264944      0.00040992140436
  C   1.61447349698409      0.05864126738545      0.00029713702325
  C   0.55954726839940      0.98285864451397      0.00032643745120
  C   -0.79029194217994      0.72629584198695      0.00030823160358
  C   -1.48667953421832     -0.58279432576862      0.00025964028096
  C   -2.84689213080906     -0.24923614548108      0.00029208521926
  N   -3.04181577540503      1.08413689510628      0.00035354847112
  C   -1.82830806519048      1.66839364481210      0.00036030296547
  H   -1.72664266444670      2.74332412517392      0.00040819381876
  H   -3.68162343310753     -0.93418068176998      0.00027606523905
  C   -0.92813255549682     -1.84038877926358      0.00018616217750
  C   0.42472517674986     -2.17728029787584      0.00015517752031
  C   1.52806917234289     -1.34403171322995      0.00020824435523
  H   2.48561035051841     -1.84971427798640      0.00019047188362
  H   0.64749356858636     -3.23615401440709      0.00009278570895
  H   -1.62562860253200     -2.67161587157122      0.00014473729034
  H   0.84909181982962      2.02752108292528      0.00039257993479
