19
Coordinates from ORCA-job ./opt_b97-3c_parallel
  N   -1.54144843125425     -3.36051091116928      0.00028387773671
  C   -1.41362163253879     -2.20662637434966     -0.00004181313031
  C   -1.22246241021898     -0.79797587976553     -0.00052528430357
  C   -2.36445229080971     -0.00403296446608      0.00172373508220
  C   -2.44787527987315      1.38081605160086      0.00175926363942
  C   -1.43161841474675      2.32917053158496     -0.00041019307049
  N   -0.10648764129033      2.22577598270353     -0.00310369259380
  C   0.57634556751164      1.09808838309047     -0.00437919588425
  N   1.91547098671094      1.13046270569722     -0.00718232452667
  C   2.32751561938332     -0.15748999105045     -0.00795640338121
  N   3.63360520564686     -0.43787695225120     -0.01049841631231
  H   4.29429826752523      0.31826865702146     -0.01305813570475
  H   3.97283304504926     -1.38054603180910     -0.01253436139420
  C   1.25829190943375     -1.09388900701255     -0.00561433311753
  C   0.10969783450850     -0.34366028720805     -0.00329375017323
  H   1.33394418393365     -2.16921430547057     -0.00566272577907
  H   -1.77193221309036      3.36095737937059      0.00017394113378
  H   -3.45025695416656      1.79076018763027      0.00375997693505
  H   -3.30505564441428     -0.53936384224688      0.00368207604425
