23
Coordinates from ORCA-job ./opt_b97-3c_parallel
  N   -3.69871310264224     -2.16680630869190      0.00377014870781
  C   -2.59269512533606     -1.81235884181010      0.00321726963997
  C   -1.24941981861760     -1.35372990861896      0.00292064703589
  C   -0.26557321994504     -2.34976147409367     -0.01133968146340
  N   1.04965711206709     -2.30728071869610     -0.01532141223046
  C   1.86065339944041     -1.24892030558575     -0.00678581236492
  N   3.17215873062817     -1.58967276012703     -0.01174542524477
  H   3.91180558216758     -0.91255704472686     -0.01445772713238
  H   3.39320727075200     -2.56752559205060     -0.02837420540275
  C   1.53856938024624      0.14571507506881      0.00716268933668
  C   2.64054013855001      1.03428344748078      0.01090818849719
  N   3.57141037218071      1.73091075191294      0.01347445939521
  C   0.27420362643551      0.73731261217589      0.01768563792171
  C   0.01654016315078      2.09954794781123      0.03167612822266
  C   -1.38211085409031      2.27706876625105      0.03919655653959
  N   -2.02080064231808      3.45396740216067      0.05364818108394
  H   -1.51614314222922      4.32054953092084      0.05735207103838
  H   -3.02233801189079      3.50166529903990      0.05589618307394
  C   -2.02776428798488      1.00652211439825      0.02974888785457
  C   -1.05468509344502      0.03683363547303      0.01638775606197
  H   -3.09198601261713      0.83727404124191      0.03239509595163
  H   0.75475582954614      2.88405244056943      0.03639200933004
  H   -0.65566471714821     -3.36292281450359     -0.02103752065246
