22
Coordinates from ORCA-job ./opt_b97-3c_parallel
  N   -4.61213238434907     -0.42757087567970      0.03587623400668
  C   -3.46704803094794     -0.22928717341877      0.02756738806616
  C   -2.06926454174968      0.00944243447507      0.01564921696199
  C   -1.67117272986376      1.34996510106780      0.15149603351361
  N   -0.49922735520035      1.94233709101250      0.08516955656890
  C   0.71241957300866      1.37419240731431     -0.04467762922277
  N   1.69270069648617      2.29380253991086     -0.25924118609837
  H   1.36567116009988      3.22577181398300     -0.44924303219973
  H   2.54927513942357      2.00002307299121     -0.69969183786171
  C   1.06822806092102      0.01765346006284      0.06315632418692
  C   0.14480954871052     -1.12035978281663     -0.06698001270118
  C   0.93952064366603     -2.28979547815714     -0.12816238370635
  C   2.26594172014948     -1.93417147473242     -0.00223425986376
  C   2.36097731733613     -0.52435940696698      0.12307390455035
  N   3.55538217065129      0.18127790749050      0.23725050761840
  H   4.35173738281613     -0.41579964559453      0.39460460958048
  H   3.53269576401430      0.91469818335613      0.92999931987407
  H   3.10906739301920     -2.60951318424154      0.01128190007214
  H   0.55026271992238     -3.29148063061578     -0.21735176735239
  C   -1.22283933978901     -1.10838923768354     -0.10190333460864
  H   -1.71203897498519     -2.06987332244949     -0.20195780598515
  H   -2.48950289903973      2.04704962179231      0.30909819540038
