22
Coordinates from ORCA-job ./opt_b97-3c_parallel
  N   -4.27230821996631     -0.86887532089266      0.06689061368834
  C   -3.17954529204820     -0.47370361026282      0.03730528398852
  C   -1.84466915197362      0.00153916253736     -0.00093509190806
  C   -0.81909526289275     -0.95800212128250      0.04386605855124
  C   0.52826242380472     -0.74250610223651     -0.00478917812518
  C   1.52806336815942     -1.76620485322161     -0.00658300685237
  C   2.77678910097713     -1.14882412872318     -0.05016467285342
  C   2.60188657634837      0.24357019106151     -0.07517925799936
  C   1.24349377166760      0.54741869940193     -0.05532001523161
  C   0.66580799474624      1.82571014477478     -0.03688714939669
  N   -0.63618212360733      2.18086958739620     -0.11517755838418
  C   -1.68675955868043      1.39662573271686     -0.11271476745995
  H   -2.62256180885519      1.94306755206459     -0.19633950049413
  N   1.47296399861923      2.91699744477658      0.01608688600486
  H   2.41419914792242      2.83730963560584      0.35100921868668
  H   1.00619840609760      3.79703086750640      0.14588693851657
  H   3.41649099362946      0.94821501441878     -0.14299915096509
  H   3.72730314041715     -1.66051955495797     -0.06771391359096
  N   1.29513121146406     -3.11998567275732      0.09308147313600
  H   2.06531493141549     -3.70176810023301     -0.19046367933207
  H   0.42798174890047     -3.44910539567367     -0.29672060068972
  H   -1.15863411444542     -1.98485559181949      0.11887225571052
