24
Coordinates from ORCA-job ./opt_b97-3c_parallel
  N   -2.49339556386149     -3.17420289919005      0.00020864519859
  C   -1.54421635013882     -2.50626438433947      0.00013028734431
  C   -0.33345260264119     -1.76336014689873      0.00011461674212
  C   0.82382918958786     -2.56785284652834      0.00204807263909
  N   2.11011138359937     -2.30381086537389      0.00272868570067
  C   2.69827615367532     -1.10142860258525      0.00165530070376
  N   4.04991622860255     -1.16761315794380      0.00261342677356
  H   4.48049660285716     -2.07403459138818      0.00465307680909
  H   4.62906152672237     -0.35027204809312      0.00282000969069
  C   2.11846268990083      0.18524363467886     -0.00034859292775
  C   0.79358676081893      0.52557586107217     -0.00177231087778
  C   0.31667557398190      1.86090258570951     -0.00371395273146
  C   1.09022323991328      3.02154388887938     -0.00449904441692
  N   1.71989303500713      4.00123863135037     -0.00492990767361
  C   -1.09077653250548      1.82697368579200     -0.00478352061083
  N   -1.91292540300885      2.87168717456921     -0.00666859820742
  H   -2.90968246599659      2.73858908941932     -0.00727752313604
  H   -1.55671912557173      3.81077972443735     -0.00746679938201
  C   -1.52033784844014      0.45645809334547     -0.00350042464886
  C   -2.88477110178879      0.14728091512236     -0.00422365963397
  N   -4.04529090467802      0.06511837236537     -0.00513074070725
  C   -0.38908815328775     -0.36355215639019     -0.00165661708657
  H   2.81223258307641      1.01925382551117     -0.00083036175803
  H   0.61207926117575     -3.63238534712162      0.00325084199665
