19
Coordinates from ORCA-job ./opt_b97-3c_parallel
  N   -3.12653544860770     -2.14505347842311     -0.02451834498302
  C   -2.12348388679443     -1.56269092607713     -0.01374919602587
  C   -0.85224132822893     -0.92649237176120      0.00197682694396
  C   0.25677832303973     -1.78951102911927      0.02201562793083
  N   1.55581095087783     -1.57394049631849      0.02746605019201
  C   2.21871048732113     -0.41719242938030      0.03780480217721
  N   3.57565687019816     -0.56717244728294      0.08837514705095
  H   3.92417710860505     -1.49549206655435     -0.07347006563795
  H   4.17739940399129      0.19506972680677     -0.16237813381334
  C   1.72281301156932      0.90718502944906      0.03982326625088
  C   0.41852173718295      1.31429198299600      0.01607450113439
  C   -0.07172391203265      2.63497841036117      0.00882462528128
  C   -1.44890543969913      2.52656003962977     -0.01523043968691
  N   -1.90327670845034      1.23493485244690     -0.02288620007196
  C   -0.81604055555148      0.47105228191953     -0.00456698241820
  H   -2.16269735146301      3.33761380273799     -0.02749016186650
  H   0.51735103744623      3.53699326412006      0.02117608281866
  H   2.47062806664173      1.69378527427905      0.06586974854967
  H   0.00123087965422     -2.84409129462952      0.02554135757389
