22
Coordinates from ORCA-job ./opt_b97-3c_parallel
  N   1.10532635767831      3.65356826926574      0.02370255319460
  C   0.51906207134135      2.65082977613986      0.01095587334052
  C   -0.17298250688243      1.41107788345206     -0.00530039841127
  C   -1.56946420846858      1.49608255384967     -0.02817756911306
  N   -2.52210821776943      0.58187920967424     -0.03164086587442
  C   -2.38723384832981     -0.74404279231870     -0.04109504308212
  N   -3.59163961647926     -1.40868841345080     -0.09065524905951
  H   -3.63251071138466     -2.35369701307837      0.24623542454202
  H   -4.39013634417042     -0.83730060502307      0.12631435427209
  C   -1.22701995577502     -1.54460986796815     -0.05334592406730
  C   0.08924756498187     -1.15577041489597     -0.02853764617681
  C   1.19854338955521     -2.00682331919003     -0.03103685656537
  C   2.35338395255483     -1.21456464644735     -0.00343867593698
  N   3.62814116274602     -1.65912610433084      0.03842626981355
  H   4.37849762459299     -1.01571412647884     -0.13431556294416
  H   3.82308262888941     -2.62256780343820     -0.16310567655371
  C   1.98740375188669      0.16567165418073      0.01820382229359
  C   0.61704693696049      0.24620321747451     -0.00016361006177
  H   2.67280533417391      0.99763471649010      0.04206445439445
  H   1.16476973285897     -3.08457167258043     -0.04573456774029
  H   -1.39783499587150     -2.61626506767072     -0.08869461445460
  H   -1.95566861318898      2.51072664724453     -0.03344325740944
