22
Coordinates from ORCA-job ./opt_b97-3c_parallel
  N   -2.59447865788248     -2.65925157260447      0.00263351605109
  C   -2.01202828854553     -1.65064260059081     -0.00874727616399
  C   -1.40838334003024     -0.39308011060813     -0.01344192688574
  C   -2.13201816942029      0.83782827229976      0.01637384036684
  N   -3.47349088937833      0.91311990240943      0.00301004178955
  H   -3.93602398302609      1.78685748927517      0.16871496704791
  H   -4.01975369460736      0.07659563451474      0.11091899288398
  C   -1.22621618068310      1.91041383042966      0.02882120764076
  C   0.07009583803669      1.40405443531845      0.00698484837425
  C   -0.03469170385119     -0.09644700359237     -0.01987618218888
  N   0.88720351730254     -1.03328237263478     -0.03201654188621
  C   2.21073958948226     -0.87789348500761     -0.04372928040181
  N   2.89266892068040     -2.06988032617773     -0.11342465897683
  H   3.84190834742726     -2.10047364956723      0.21180968210179
  H   2.33696344037287     -2.88257432704630      0.09117470163880
  C   2.97717995655259      0.30506775172735     -0.03837625603080
  C   2.54317524365531      1.61252062715930     -0.01072081597389
  C   1.24954569245741      2.12386861286891      0.01086885875317
  H   1.15741825681754      3.20386369379202      0.03153639244978
  H   3.33270054072821      2.35498476928742     -0.00674194389188
  H   4.05159431407681      0.16373446328783     -0.06933485043453
  H   -1.49215384696527      2.95577867585938      0.04635637123672
