18
Coordinates from ORCA-job ./opt_b97-3c_parallel
  N   3.31329975737959      1.96222066457441     -0.00021615048146
  C   2.24158777338245      1.51574180195373     -0.00018579101419
  C   0.93927883314653      0.95210097190652     -0.00023997561889
  C   -0.13479784160839      1.85651695173367     -0.00127825495694
  N   -1.43556273184047      1.66744659101764     -0.00082714956686
  C   -2.09807948091965      0.50216420223217      0.00044590305867
  N   -3.43942337704772      0.63643695114002      0.00288725968830
  H   -3.84607497507685      1.55274430650649      0.00298269615597
  H   -4.01733080746563     -0.18281562974671      0.00287898135986
  N   -1.70769676844108     -0.79362316986609     -0.00072117298572
  C   -0.48015349559802     -1.21628598137217     -0.00096878635758
  N   -0.21419138785086     -2.54912789931997     -0.00181617497854
  C   1.11789920182649     -2.64523259305571     -0.00103972105330
  C   1.80508160857717     -1.40760713533156      0.00016521560947
  C   0.82813263718009     -0.44078862522304      0.00014495476813
  H   2.87150167448488     -1.25575250541246      0.00069589562261
  H   1.58458156086432     -3.62140391522256     -0.00135989612558
  H   0.15024571230717      2.90415103918565     -0.00256144192394
