14
Coordinates from ORCA-job ./opt_b97-3c_parallel
  C   -0.50769303522500      1.33860112666600      0.41840602155904
  C   0.60596710303426      2.20084923610963      0.59940254463194
  C   1.70643081890847      1.40122543157135      0.39550863792985
  C   3.04230644099922      0.93857957161723      0.26572641020925
  N   4.37265181265917      0.98500040440495      0.25407770294586
  C   4.63934496234807     -0.32513995968805     -0.05390960022054
  N   3.61489463059458     -1.21776629148170     -0.24344156860080
  C   2.57966253677643     -0.40653611554184     -0.03806754998148
  C   1.22464687877705      0.00048016068475      0.07908882759642
  C   -0.15064510461645      0.00100134763372      0.10247026281799
  H   -1.53361997512531      1.67020498194232      0.51257160684660
  H   0.55132346017434      3.24908101511523      0.84320088042274
  H   5.66469612799769     -0.65662192351052     -0.14795910754366
  H   -0.84326665730252     -0.80571898552309     -0.07271506861324
