15
Coordinates from ORCA-job ./opt_b97-3c_parallel
  C   -0.57022666172224      1.27766208725654     -0.25660862814438
  C   -0.20016817220551     -0.04578343331676      0.10510546753423
  C   1.17651597760789     -0.04887446173537      0.06623398175381
  C   2.52217474443729     -0.49415805366728      0.15268162006261
  C   3.68103798394786     -1.22539518933945      0.32503471259176
  C   4.70016358797620     -0.27999379197966      0.02958857043203
  N   4.29383562438959      0.98569252020410     -0.31488085706295
  C   2.97589493395927      0.85910267013618     -0.24123620485494
  C   1.64188800616634      1.32674152513201     -0.33432907363615
  C   0.53513708005425      2.12482203629618     -0.52698321806273
  H   -1.59888125021935      1.60858286438739     -0.32002522635979
  H   -0.88611402012838     -0.84080079107917      0.34862581787235
  H   3.84068388426127     -2.25210788437744      0.60938472125211
  H   5.76132376045940     -0.49289073021593      0.05888920052118
  H   0.47311452101610      3.16086063229866     -0.81674088389917
