16
Coordinates from ORCA-job ./opt_b97-3c_parallel
  N   1.52453484201052     -0.41109684240364     -0.24605017475819
  C   0.47169324543101     -0.47315442986230      0.65143577017250
  C   -0.75652202492338      0.24790430649018      0.53941916013292
  C   -1.69352078157468     -0.04832474760765      1.56045844830778
  C   -1.08041760928924     -0.99211861083868      2.35029594332272
  C   -0.76488162140409     -1.84926705850568      3.42672080318173
  N   -0.89399673172662     -2.44631240764556      4.61550160814109
  C   0.33921424793659     -3.02822183094099      4.71095809833538
  N   1.27091985358336     -2.86453976783916      3.71279952309100
  C   0.56200181130064     -2.10789197678349      2.87688741502039
  C   0.30200902146385     -1.26937166858315      1.76906879007696
  H   2.40459861583812     -0.72179593837257      0.13130778976575
  H   1.62660761476888      0.47459513826812     -0.71440427967042
  H   -0.93875445799002      0.97470580645580     -0.24267956683168
  H   -2.66345633319667      0.41107934858533      1.66325881339139
  H   0.59052030777174     -3.61399932041648      5.58513185832076
