18
Coordinates from ORCA-job ./opt_b97-3c_parallel
  N   1.40257900413228      0.22269496964660      0.32889479132960
  C   0.25207061439335      0.15489210272205      0.16702497104357
  C   -1.13973248302043      0.10996483959423      0.05314068244355
  C   -2.05704716885569      0.58330712191278      1.09262496040718
  N   -1.66535859209672      1.10327874885632      2.24903983096489
  N   -3.38847000010924      0.45664813474720      0.79805994698461
  C   -3.34938762611717     -0.08805720153986     -0.40887310319046
  C   -3.94127650267669     -0.61640523646895     -1.58645288282274
  C   -4.85929330567289     -1.03641455812889     -2.52661611615553
  C   -4.07768266100813     -1.52637964414928     -3.60363672562732
  C   -2.68015922382837     -1.42866398937984     -3.37238324797266
  C   -2.56755194466966     -0.86388818676497     -2.12029183600641
  C   -2.00020178803228     -0.33052494790679     -0.93202297031946
  H   -0.69071841998018      1.19938054604851      2.47211598211234
  H   -2.35403838524415      1.40661785267967      2.91374158871682
  H   -5.93627813875504     -1.01627677787268     -2.49333483882682
  H   -4.50373789321791     -1.93378855925281     -4.51052136009524
  H   -1.90891548524105     -1.74146521474330     -4.05708967298588
