21
Coordinates from ORCA-job ./opt_b97-3c_parallel
  N   1.42685719541035      0.05833449168001     -0.55067769395108
  C   0.27946484783671      0.03969285531039     -0.34845100748324
  C   -1.10492086481461      0.05410649903124     -0.17871962899584
  C   -2.04332499376703      0.55626227006825     -1.19335342499037
  N   -1.65827964210486      1.05738254125160     -2.35793681138154
  N   -3.36864375369491      0.46169721587292     -0.87870862460670
  C   -3.32336500370962     -0.07835963566046      0.33667930769531
  C   -3.89433301974958     -0.64871478520492      1.48077699560710
  C   -4.75130294709137     -1.31529669407706      2.35486385174614
  N   -6.11972912212867     -1.34558198478406      2.41099658118204
  N   -4.01531927796483     -1.94902713378388      3.30711855549100
  C   -2.67937636222528     -1.74756324220012      3.10776445829929
  N   -1.76734614288778     -2.37677281083291      3.91444920303354
  C   -2.49857962369503     -0.94422844881895      1.98813056458304
  C   -1.94525446359023     -0.36137750166963      0.83656135775020
  H   -2.34962004780862      1.36567736154632     -3.01795671423500
  H   -0.68475513952683      1.11796445973857     -2.59942170054136
  H   -6.59478140899286     -1.20343774149803      1.53647789985158
  H   -6.49089455330342     -2.11114021055938      2.94945444127359
  H   -2.13875632705262     -2.67059635736517      4.80272094688519
  H   -0.86828934913901     -1.93317114804473      3.98552144278682
