20
Coordinates from ORCA-job ./opt_b97-3c_parallel
  N   1.33104816579745     -0.02752369848046     -0.44594113861650
  C   0.17759936772155     -0.02581496104501     -0.28285210818529
  C   -1.21373947756360     -0.03072611613031     -0.16958572330975
  C   -2.10719787841008     -0.09259330047270     -1.31340884202074
  N   -1.66208898233779     -0.14170848428425     -2.56697675064575
  C   -3.48915542095981     -0.09833698462219     -0.92293499107729
  C   -3.47396121999198     -0.03906621689060      0.44361858195908
  C   -3.92600778673690     -0.00580329476574      1.79787700744262
  C   -4.68869604237229     -0.01728318454538      2.93683917828390
  N   -3.86050498681335      0.01712974136704      4.03655424969794
  C   -2.56286154198720      0.05964621711208      3.65765117333656
  N   -1.55541800428770      0.17713774559788      4.58368018329157
  C   -2.50579347350114      0.04898013687793      2.25608420756445
  C   -2.05979785799347      0.00527849355319      0.92837297008474
  H   -2.29206900515601     -0.18322989914488     -3.34612011584255
  H   -0.67519767555617     -0.13454198741102     -2.76091771470201
  H   -4.31898160807525     -0.14345483490034     -1.61055146032918
  H   -5.75659361903990     -0.05709537064303      3.07805216346058
  H   -0.66834751918564     -0.21132476546471      4.31237963574157
  H   -1.83354543355031     -0.08867923570748      5.51458949386599
