18
Coordinates from ORCA-job ./opt_b97-3c_parallel
  N   1.35159328322317     -0.00000125121823     -0.21239952777666
  C   0.19067744814079     -0.00000034650587     -0.19321804393894
  C   -1.21410249672721      0.00000071669793     -0.15576061504976
  C   -2.07994471531959      0.00000040479086     -1.28397762506822
  C   -3.45527653675304      0.00000072330520     -0.92214128474835
  C   -4.54310656635226     -0.00000036043231     -1.81174197128525
  N   -5.44957237715300     -0.00000128607155     -2.53729874486581
  C   -3.46029262292707      0.00000050268007      0.47404075794810
  C   -3.93469504458040      0.00000024536666      1.80404085248532
  C   -4.76862951396924      0.00000003485881      2.89695197392601
  C   -3.89269456970884     -0.00000025777188      4.01635399205616
  C   -2.51457277175911     -0.00000000121246      3.66800620132163
  C   -2.50431774596631      0.00000023401363      2.29336097977640
  C   -2.06491825144042      0.00000050000913      0.95118083641108
  H   -1.73076528489351      0.00000060155018     -2.30513820357690
  H   -5.84483716797495      0.00000001617464      2.94474147604088
  H   -4.24290923360559     -0.00000044428352      5.04008505105358
  H   -1.69319583223340     -0.00000003195128      4.36503389529069
