19
Coordinates from ORCA-job ./opt_b97-3c_parallel
  N   1.39397837473610     -0.22506493039223      0.12146699501881
  C   0.23897369906568     -0.11691939538189      0.04028393383667
  C   -1.16133827361327     -0.03669458293281     -0.00413795342151
  C   -1.91550119953004      0.68803228732491     -0.99616804463179
  C   -3.22094481443941      0.47327110016157     -0.67184992008596
  C   -4.63797969680094      0.49955572432615     -0.70875992372824
  C   -5.96682940437686      0.71838519640888     -1.03269842592899
  C   -6.55917410281249      1.45589845244165     -2.06827748921072
  N   -7.05584136213760      2.06452693829327     -2.92398981704746
  C   -6.67374609918494     -0.02561735418116     -0.01111147098251
  N   -5.91497714595292     -0.67470478143495      0.89912331882562
  C   -4.67850170754736     -0.36456355153915      0.48960456102640
  C   -3.28091987088294     -0.41009114691344      0.56229331958532
  C   -1.98279865182697     -0.71471429379164      0.95933900177479
  N   -1.53113637388522     -1.41067658252670      2.04212160522133
  H   -1.47457792102993      1.25152229688522     -1.80118228255450
  H   -7.75233935041495     -0.08029031672335      0.04807798468451
  H   -0.57488731106155     -1.72430172290238      2.01840758926176
  H   -2.16536878830433     -2.07569333712199      2.44803701835650
