21
Coordinates from ORCA-job ./opt_b97-3c_parallel
  N   1.42738532625402      0.09690700982665      0.08282940995594
  C   0.26722917927015      0.02637819180586      0.01703093088979
  C   -1.13405416613692     -0.01517177235870     -0.00737236992630
  C   -1.92509409798539     -0.93311161961195     -0.78380787463661
  C   -3.22203989262968     -0.62573530926890     -0.46940736218124
  C   -4.64818805597222     -0.65543351090373     -0.45276806071482
  C   -5.93581377708152     -1.01270765399215     -0.73216281835188
  C   -6.74337195677152     -0.11835053244651      0.06303782605243
  N   -8.08400198688030     -0.14890471753268      0.07731376825574
  C   -5.95344285349755      0.79557359435838      0.83961781534185
  C   -4.65623806089928      0.47747914423740      0.53140315682710
  C   -3.24087035142011      0.49933888663983      0.50536731884963
  C   -1.93236576126072      0.87255492837560      0.78803700963542
  N   -1.44711877520832      1.90791288405288      1.56493420848545
  H   -1.51632194947180     -1.68021790873853     -1.44351979208810
  H   -6.32681026601673     -1.77505630240700     -1.38770752372387
  H   -8.61246828847577      0.52531829148730      0.59834382825497
  H   -8.59428795482860     -0.76663230732637     -0.52536469741858
  H   -6.35368019455223      1.54842076049256      1.50037069910539
  H   -0.47569041278378      1.81765440549129      1.82026595045413
  H   -2.01627570365152      2.12770353781875      2.36522857693355
