19
Coordinates from ORCA-job ./opt_b97-3c_parallel
  N   1.33273974004440     -0.29706019615611      0.22633141982428
  C   0.17204259587758     -0.22531280500394      0.21901232436880
  C   -1.22640180058546     -0.13180953512825      0.19004672777971
  C   -2.11149261550179     -0.20887713324638      1.32338991374127
  C   -3.46424558155618     -0.07185390501670      0.98055848213943
  C   -3.47449159810520      0.09886997635777     -0.40125445405462
  C   -3.93939556650918      0.30106199165812     -1.71627723050064
  C   -4.77083701549904      0.50772662183909     -2.79473642678254
  C   -3.90529009225678      0.58877371440578     -3.91465211066660
  C   -2.52031721516348      0.44619263570577     -3.58906790650518
  N   -1.47902413468839      0.40662725134287     -4.50198963876812
  C   -2.51176784210047      0.26094247692434     -2.21913926664168
  C   -2.06961621348479      0.06098568373405     -0.89756795193492
  H   -1.75129784476536     -0.35625970097261      2.33161385726327
  H   -4.28783555694546     -0.09912570847411      1.67490653363694
  H   -5.84449304876164      0.59766024649696     -2.83424008695178
  H   -4.25533133020189      0.74224701639960     -4.92793958391092
  H   -0.57376706200242      0.58994521927339     -4.10140924842695
  H   -1.62325781779450      0.96080614986034     -5.33042535360978
