23
Coordinates from ORCA-job ./opt_b97-3c_parallel
  N   1.39523120666523     -0.11234870741964     -0.08888570871104
  C   0.22962181748898     -0.10970271317019     -0.08988368814456
  C   -1.16766823160412     -0.08956106208690     -0.07621822100886
  C   -1.96609542119288     -0.85032916758031      0.85238557540610
  N   -1.45864343190262     -1.77761099913832      1.74651807500341
  C   -3.26801040845319     -0.49914384325366      0.55739123268301
  C   -4.68135766733043     -0.44968494087854      0.59988096629184
  C   -5.97765985188253     -0.70520521328917      0.96457688396944
  C   -6.77036766001321      0.10761957336076      0.08053092736720
  N   -8.11175230476584      0.15538764268690      0.11841105832886
  C   -5.97234643197439      0.87662492995606     -0.83724461510815
  C   -4.67803077684458      0.54434793765044     -0.53230680360157
  C   -3.26473405195753      0.49167587878962     -0.57118723953495
  C   -1.96086086225272      0.73504429571269     -0.95336042248324
  N   -1.44797816015638      1.50019025020045     -1.98695604249732
  H   -0.49051656338239     -1.63338076528339      1.98938967412246
  H   -2.02298090907132     -1.90188978780690      2.57065746875626
  H   -6.37839278111157     -1.35816821388743      1.72406812835855
  H   -8.62656426139455      0.65519026611189     -0.58217079190028
  H   -8.63055158701808     -0.47294100972369      0.70295705821994
  H   -6.36860964050638      1.54623096631535     -1.58449066985735
  H   -2.00875069447773      2.30348472710958     -2.21794808940923
  H   -0.47918132686161      1.75606995562438     -1.87285475625051
