30
Coordinates from ORCA-job ./opt_b97-3c_parallel
  N   0.96401951406217      3.82573027729118      1.81774348266426
  C   0.45049858875956      2.92587616873284      1.28991448303482
  C   -0.14643734967946      1.83124233647668      0.62021455661781
  C   -1.50279120543949      1.87187821721217      0.45473950561011
  C   -2.36973686341489      0.97239262491054     -0.19138244401321
  C   -3.67792087941863      1.43419695203102     -0.45671126174434
  N   -4.76709662338109      1.75800458028049     -0.70575577529189
  C   -2.09337583132472     -0.35993263676046     -0.54593452178526
  N   -3.04933147947070     -1.06730719393040     -1.16846393646456
  H   -3.96041068074787     -0.66680054581765     -1.31583865394635
  H   -2.94040809314621     -2.05404086061189     -1.32978076198994
  C   -0.87177226084880     -1.06468655767878     -0.21407167104956
  C   -0.96033095142703     -2.46628653540807     -0.40806167006791
  N   -1.11945735522168     -3.58621085198807     -0.67576463757635
  C   0.37297738490373     -0.57176657232101      0.15977834078677
  C   1.34380713296168     -1.50748706370824      0.69897505345410
  C   0.86946814382774     -2.45752542267117      1.63440102165316
  N   0.51181815046382     -3.20964124410725      2.44544528134254
  C   2.68719389648953     -1.58705526474667      0.36544857085153
  C   3.46894040180501     -0.74909000376473     -0.40751879862907
  C   3.16327060403231      0.56296379716319     -0.75162331145853
  C   1.99949086816437      1.26248105577484     -0.32994442002447
  C   0.78065016910144      0.82051148010863      0.10257750633076
  H   2.09087656029836      2.34091352200440     -0.37673415569749
  N   4.06828634841756      1.28306389538093     -1.46302057165917
  H   3.96495218586479      2.27742771014928     -1.54876465145009
  H   4.99359833741135      0.92234339748459     -1.60742096499423
  H   4.45470899878910     -1.11211588383526     -0.66934659948570
  H   3.18971407751806     -2.46506090343150      0.75161171755603
  H   -1.98527709988557      2.76348394476932      0.83230507882278
