31
Coordinates from ORCA-job ./opt_b97-3c_parallel
  N   -4.55164981913249     -1.80672970286519      1.28828633427525
  C   -3.63292812508020     -1.27300088164997      0.81515305032082
  C   -2.45963437148420     -0.70510231675397      0.26937522035601
  C   -2.56687816844855      0.57594953770081     -0.33566786852517
  C   -1.59117226531184      1.49927335850299     -0.59212222767701
  C   -1.99316151652042      2.72233575433930     -1.18327416835322
  N   -2.27527584497093      3.74792762540014     -1.65251073104934
  C   -0.19777983613763      1.40962948239257     -0.17093634042825
  N   0.43083036380849      2.60830914288762      0.14460346891922
  H   -0.04189722921987      3.43602809429495     -0.18235333231065
  H   1.41479980596083      2.63897157019566     -0.07242389809004
  C   0.44826970662072      0.22492102848585     -0.00475365682163
  C   1.78752369048916      0.17917930529517      0.61317075419663
  N   1.87782967030030      0.63034385750886      1.88438445051676
  H   2.78227625115493      0.69595916329961      2.32429058534269
  H   1.17814697512274      1.27750547542953      2.20476755774972
  C   2.88335356884058     -0.30614555072309     -0.08052039690297
  C   4.15096431774490     -0.13487722116471      0.52154962118178
  N   5.16512950950587      0.04261312193274      1.06352403765023
  C   2.83555630273160     -0.97864066371378     -1.34894766235712
  C   1.80573606996778     -1.68210945251975     -1.88247735729722
  C   0.53404341202916     -1.90157112742526     -1.28025619277177
  C   -0.08343458060380     -1.07878460802908     -0.39784916101029
  C   -1.31579667381574     -1.50114764285935      0.27705561813120
  N   -1.31573177767053     -2.71652331147771      0.84218762817689
  H   -0.47491317194835     -3.26274640239960      0.84914811825345
  H   -2.11863955219843     -3.06634915041263      1.34003901441956
  H   0.01583500653130     -2.81029004455072     -1.56852775845907
  H   2.00293374451056     -2.21717515284652     -2.80250157309126
  H   3.77792275796301     -1.00818310902177     -1.88133960307640
  H   -3.57719042183941      0.87891169675120     -0.57748033916496
