22
Coordinates from ORCA-job ./opt_b97-3c_parallel
  N   -3.55139537345680     -0.61278299161368     -1.17411580470324
  C   -2.55561522053660     -0.18839185351371     -0.35637821041411
  N   -2.75332633039489      1.01887071916476      0.16720267761851
  C   -1.86013030028317      1.59032453891378      0.97992530884772
  N   -0.56696343362816      1.47612365584674      1.07922219865075
  C   0.22264522648318      0.58720888350128      0.44218107095855
  N   1.37143211262211      1.01805319079173      0.00593678030500
  C   2.46197053928602      0.30075042503835     -0.31183034335301
  N   2.90119502420979     -0.85453897515681      0.18322909429694
  C   2.06554437622047     -1.75143430559641      0.71838983845230
  C   0.69194955712637     -1.81693880940172      0.73942594235689
  C   -0.22439900248287     -0.81079859796403      0.33815162062658
  C   -1.49745301981275     -1.10270448534808     -0.09573908042542
  H   -1.70224667471105     -2.14555526319316     -0.31067773471850
  H   0.26356754470186     -2.75320082717818      1.07620607406178
  H   2.58086846764209     -2.61624418244382      1.12706581828633
  N   3.29052474785532      0.91094408846557     -1.19475764670192
  H   4.21609789856173      0.53157580220039     -1.28138273169626
  H   3.16480860666126      1.89447430354816     -1.35037063129042
  H   -2.29360389339513      2.33794361590540      1.63959447118549
  H   -3.58997828757661     -1.56297644797938     -1.49064974610687
  H   -4.39818435959197     -0.07263603008705     -1.18670143483727
