31
Coordinates from ORCA-job ./opt_b97-3c_parallel
  N   -4.24684019728518     -0.36749343542605      0.98728814296257
  C   -2.91737405151368     -0.42011466010807      0.55465968703709
  C   -2.10678869950509     -1.43206667721359      0.99274624773059
  C   -0.81215528567861     -1.74620442563268      0.49725899004455
  C   0.07977950190708     -0.88231286442769     -0.04539466636832
  C   1.32284697503992     -1.37001752243810     -0.67828162450656
  N   2.52591775046023     -0.97078779686244     -0.41585628005644
  C   2.81891214739854      0.01972018891248      0.47582358044586
  C   2.08744805363699      1.14358014742340      0.75687397606542
  C   0.79464747185874      1.46904073140400      0.25208187341503
  C   -0.13199333969457      0.55703539282427     -0.16612688081599
  C   -1.37050063122549      0.95912179062666     -0.85427236922174
  C   -2.60545366101470      0.53402663813778     -0.47329472972355
  H   -3.46244371353113      0.91579273359579     -1.02152593505954
  N   -1.19980654885004      1.75553428300354     -1.96840625878046
  H   -0.41349407627292      2.38537742145670     -1.91103559854627
  H   -2.03028468038264      2.19153163461036     -2.33662659991595
  N   0.49031095247172      2.84675743470218      0.16396629488644
  H   -0.43994362377287      3.06526999767860      0.49191116748312
  H   1.16679966579892      3.42446108147937      0.63617597803326
  H   2.57693209708582      1.90140336115355      1.36060267800515
  N   4.09662719922267     -0.12248287681299      1.00438751820947
  H   4.43350040146244     -1.06988957972603      0.96350200257917
  H   4.24153014653093      0.30852998118424      1.90108744096618
  N   1.17330272420046     -2.35789360004847     -1.60595993061014
  H   0.26295299933414     -2.47596144833700     -2.01083124619604
  H   1.96499181531624     -2.54900917235301     -2.19796279567261
  H   -0.50928739740841     -2.78628135327742      0.57593844486679
  H   -2.53633287686485     -2.13524806510360      1.69949636595833
  H   -4.60936952652928      0.56744719312601      1.08507664764139
  H   -4.43250937859480     -0.91416116965157      1.81258511984230
