28
Coordinates from ORCA-job ./opt_b97-3c_parallel
  N   -3.56286194904572     -0.22090264975416      1.61211598070833
  C   -2.70270351980303      0.31249614823901      1.04263259252653
  C   -1.63994992503273      1.03612289518935      0.43324622211321
  C   -1.81082610283316      2.43931886450435      0.49058606590017
  C   -1.06254425892507      3.41296974249678     -0.10317701928315
  C   0.10990526420076      3.21153700899062     -0.84868725129358
  C   0.88519578869904      2.09480364343311     -0.93533821597736
  C   0.74458271975107      0.80799726803108     -0.32033906526572
  C   1.90804277885639      0.08031578713393     -0.09009341063700
  C   3.14787553030245      0.72099853484375     -0.29497854672972
  N   4.19823862707808      1.20620909899436     -0.42325892362061
  C   1.99364579088883     -1.24148563427876      0.52362867599377
  N   1.15666769836325     -2.23796957180150      0.41147796313112
  C   -0.00435470986739     -2.20339162996310     -0.26783201645695
  N   -0.39565898402511     -3.41131893696974     -0.71028560047149
  H   0.13571196918022     -4.20998915729932     -0.41594247818055
  H   -1.31219031575098     -3.55228021850474     -1.09900374978612
  C   -0.85718556432100     -1.09478549276273     -0.45693630416314
  C   -2.09546015459829     -1.36895792073115     -1.06766359972382
  N   -3.07005081810738     -1.67772748355610     -1.62557279048747
  C   -0.58183521663182      0.26404819057561     -0.08665425796857
  N   3.09177393610269     -1.48322214755491      1.26207369120143
  H   3.24522702951947     -2.42002000220111      1.58940004596338
  H   3.83554458214525     -0.81362589720197      1.33928370331658
  H   1.78120655718726      2.19678433162272     -1.53458365777507
  H   0.48471094514367      4.07452554791248     -1.38581396048880
  H   -1.42493151340884      4.42906514457033     -0.02439844087037
  H   -2.69854061506802      2.76048154704167      1.01882263982491
