26
Coordinates from ORCA-job ./opt_b97-3c_parallel
  N   -4.26972315613726     -0.23797580956902     -0.77006997799495
  C   -2.98181265129758     -0.05442970213734     -0.32949212432425
  N   -2.31703138471827      0.91953745580946     -0.86073864230436
  C   -1.07215929887489      1.30933326303978     -0.43603141945917
  C   -0.03891359518751      0.58627507158884      0.06100250665678
  C   1.18508735191172      1.29765956940667      0.46976028596422
  C   2.44912343300678      0.82518780688043      0.29759656100672
  C   2.81033312510357     -0.40447321533979     -0.35863770002913
  N   2.16361642278899     -1.53327658325227     -0.37143201234197
  C   0.95752889409837     -1.71099481334612      0.22465709800632
  C   -0.09020151136662     -0.85274845349384      0.37208300453108
  C   -1.30649527069694     -1.37114877441046      0.95706979938546
  C   -2.57118765347719     -0.97725788687975      0.72397069175484
  H   -3.36956897675054     -1.47870992346406      1.25843770613173
  H   -1.18066189711026     -2.19480328395534      1.65452829503094
  H   0.78662776846280     -2.73764155853313      0.54059826789697
  N   4.06407674015336     -0.41554049755398     -0.93112207165379
  H   4.38271364364179      0.44543719149488     -1.34101600987562
  H   4.24728526745214     -1.23695946746209     -1.48440047772302
  H   3.27439855299134      1.45335021940611      0.61676607365571
  N   0.98967412458128      2.55422289505323      0.99097141028275
  H   1.77260144185680      2.98485751080179      1.45372756215870
  H   0.10542585749512      2.71130944835964      1.44310208882536
  H   -0.88855590153640      2.36209897410031     -0.62311537834505
  H   -4.49261416318949      0.26169062346488     -1.61554727197990
  H   -4.65832421269996     -1.16271132180904     -0.70534515535638
