29
Coordinates from ORCA-job ./opt_b97-3c_parallel
  N   -2.16036363152294     -3.62848929640093      1.41603743036219
  C   -1.66477071215292     -2.66742574835153      0.98302313457835
  C   -1.12189398056563     -1.48279556667438      0.44827488631914
  C   -1.98029307410468     -0.39631001821817      0.32434926887497
  N   -3.25992333608925     -0.49681327410683      0.76293558853371
  H   -3.62689936463920     -1.40027695963132      1.00909817721610
  H   -3.93020614484315      0.21134630381727      0.52476487568796
  C   -1.63522114965123      0.86508508543285     -0.31465905814074
  C   -2.70116956868103      1.60998617291421     -0.85486317716693
  N   -3.55764555717081      2.26282247792622     -1.29987606755689
  C   -0.38785853655785      1.47962840419400     -0.32371624752174
  N   -0.25092488303387      2.73642154839229     -0.79176856294530
  H   -1.02797012885399      3.22970894579718     -1.19969805269774
  H   0.67082682282083      3.09248566092024     -0.96213036653577
  C   0.82447905611703      0.85994296624601      0.20366848804148
  C   1.68088520319814      1.57946465270423      0.98396605794253
  C   2.93706016575119      1.14226238110740      1.47228904381923
  C   3.71703731176102      0.16483448243528      0.92519269943742
  N   3.55947612790062     -0.49772252147907     -0.24566391165534
  C   2.41795664685905     -0.72217839324923     -0.81648589500460
  N   2.40867896060553     -1.15436567375983     -2.09784317164762
  H   1.56742953570771     -1.52417536493480     -2.49713787715614
  H   3.28712448985582     -1.37466031940248     -2.53479438813312
  C   1.08562897020373     -0.52342739404750     -0.18558627592861
  C   0.22396906340744     -1.54604168475727     -0.05082787340934
  H   0.57280852987328     -2.53821771795607     -0.31574362171010
  H   4.66312790606414     -0.04758982846738      1.41163358772768
  H   3.34882339324039      1.67565539128085      2.31926824648200
  H   1.34811196860320      2.55875660907312      1.31083375238643
