26
Coordinates from ORCA-job ./opt_b97-3c_parallel
  N   -3.88090869117474     -0.55581480756715     -0.80256019318888
  C   -2.57249079827982     -0.49424577160403     -0.36946919963959
  N   -1.81495136090461     -1.50094343805693     -0.69754614486991
  C   -0.53670650790596     -1.65120067410960     -0.25453709420617
  C   0.39990603336264     -0.70683779288850      0.01388866530612
  C   1.73986051190932     -1.09755652678337      0.47024587747535
  N   1.79158130702842     -2.15492242129601      1.33191735414087
  H   2.65401341156832     -2.34828638194662      1.81097630301836
  H   0.95231380421377     -2.38546192922529      1.83265926232987
  C   2.89070531380406     -0.52445125147786     -0.00255522591455
  C   2.98248010576735      0.48558824012924     -0.99896398447599
  N   2.16050103988103      1.43840731028902     -1.32465751971058
  C   0.97827165602891      1.63356847313732     -0.66324867260349
  C   0.15609123487936      0.73831524885950     -0.06245423017754
  C   -1.05780858763085      1.21152191416442      0.62772541569941
  N   -0.90359123612059      2.35417751469399      1.36982668732127
  H   0.02761412037305      2.55900133552973      1.68704490192888
  H   -1.63451570216205      2.59913923640817      2.01630193189336
  C   -2.27364817358215      0.61758412163954      0.49857209441542
  H   -3.11770643034812      1.05694970825239      1.02023568633909
  H   0.64712686877958      2.66739213975561     -0.69044635692885
  H   3.92579221642619      0.50298212886461     -1.54477889410808
  H   3.83315831988949     -0.96490636689496      0.30799893709842
  H   -0.22208370308413     -2.68976425725675     -0.20952934973725
  H   -4.03632109352945     -1.26387528593879     -1.50201714622244
  H   -4.33514582908827      0.32123815202232     -0.99145092428307
