29
Coordinates from ORCA-job ./opt_b97-3c_parallel
  N   -1.93108942740815     -1.97320370077550      2.22048196427855
  C   -1.69415381621423     -1.16239872767915      1.41817866151022
  C   -1.50296973661687     -0.12487754693543      0.48509173338786
  C   -2.67454217850019      0.50382131435399      0.01458894771321
  C   -2.70633817375915      1.59640451317463     -0.88132224290348
  C   -1.68351744599556      2.46880519215242     -1.14001293935515
  C   -0.37364656430591      2.48624826375654     -0.66076060935485
  C   0.34965636702898      1.48081880648047     -0.04043493537434
  N   1.51237508998322      1.83199489174613      0.54124044565353
  C   2.63014097310328      1.15288684051561      0.62298370809678
  C   2.97435051934036     -0.05664252909842     -0.03193419993192
  C   2.09524522845519     -1.02468708855113     -0.44707144481422
  N   2.58686409908008     -2.13636181277887     -1.06209024640235
  H   3.57192447867903     -2.31735592928305     -1.00208504403829
  H   2.00047785058766     -2.94870437951954     -1.15102228135421
  C   0.65307714088653     -0.99059410145026     -0.25141427229555
  C   0.00523362017379     -2.22697357783427     -0.47478566963107
  N   -0.44067172045527     -3.26844062828906     -0.74149789567784
  C   -0.15094033250965      0.10708925889514      0.03078390023787
  H   4.03076608948313     -0.27906637679424     -0.12530453683426
  N   3.58825203503031      1.71984197832507      1.41140406694678
  H   3.46361756608362      2.68417127923042      1.66115944764741
  H   4.52329117419198      1.35999836111582      1.40721242698455
  H   0.18316093982461      3.40411155028216     -0.80008757532993
  H   -1.95085983196262      3.31813207839284     -1.75867619758281
  H   -3.67462860154456      1.83495062447318     -1.30381182327396
  N   -3.87163237343735      0.02313409778527      0.43288551532809
  H   -3.93046683437433     -0.85017661575436      0.92698742048782
  H   -4.71832735544796      0.38711026846347      0.04051386678178
