26
Coordinates from ORCA-job ./opt_b97-3c_parallel
  N   -0.00192033179594     -4.14976797531209     -1.46955883550856
  C   -0.23508785701061     -3.10562652859855     -1.01904628980539
  C   -0.51239055228729     -1.82313410943678     -0.48872545345161
  C   -1.80267185590598     -1.35351954797839     -0.52743036627131
  C   -2.36948283884417     -0.18324593273085      0.00824612461056
  C   -3.78359714198467     -0.14154104704236      0.05022164210643
  N   -4.93968579971654     -0.04378539642582      0.11896319209928
  C   -1.71256689927487      0.96961240481398      0.48699923504766
  C   -0.29003882389854      1.21272998844123      0.34275926039630
  C   0.09910797605889      2.56648948361774      0.50672674158206
  N   0.33863549859740      3.68150658968465      0.72536857473088
  C   0.70104356866078      0.29429407652324      0.08144647896538
  C   0.57298088363760     -1.15883750218301      0.18822049232740
  N   1.44896025017856     -1.86036075711750      0.83706435884674
  C   2.65935819296913     -1.54578571179750      1.29132960412751
  N   3.55541328616420     -0.76723561605291      0.73641577017961
  C   3.22076482908368      0.13084098674747     -0.19890842050072
  C   1.98677849233250      0.69585592139798     -0.47266568012053
  C   1.95588014298125      1.70709799824235     -1.46448065610062
  N   1.93117534481713      2.51218340293513     -2.30108172179406
  H   4.05831936501988      0.53272552141095     -0.75716431440396
  H   2.97482765273157     -2.10534217979448      2.16502061622920
  N   -2.44282475229810      1.96150029245601      1.01196577605633
  H   -3.44798289013349      1.90653693614955      1.02227341244590
  H   -2.02235438792167      2.84325143517190      1.25259067914063
  H   -2.52132654976101     -2.03169668852271     -0.96705498923452
