28
Coordinates from ORCA-job ./opt_b97-3c_parallel
  N   -3.16993149394340     -0.53088420833184      2.39764922806248
  C   -2.49375152277817     -0.00489866468343      1.61240490242234
  C   -1.63208171515634      0.65569570320629      0.70495002139482
  C   -1.79313476935946      2.01837207462072      0.56827628692560
  N   -1.15770311699977      2.89278940070650     -0.21317383955093
  C   0.06558037374368      2.72274965727138     -0.66837772534532
  N   0.53746095442620      3.70781838844018     -1.46319727904183
  H   -0.09065937750702      4.44876546463982     -1.72028297336248
  H   1.39585299350532      3.60503446587308     -1.97002807998964
  C   0.99878236636869      1.68533296602113     -0.31843075370718
  C   0.72286864212260      0.39394615707398     -0.00275329220540
  C   -0.63628848069922     -0.14980236478939      0.01216822711982
  C   -0.96161913927388     -1.37325572100284     -0.52527167529987
  C   -2.33273544617139     -1.71662420222418     -0.67116543600385
  N   -3.43045127043302     -2.03340910546211     -0.87534813159464
  C   -0.05652342466746     -2.34555250983069     -1.06806783911967
  C   1.25851866699241     -2.50924079397672     -0.82287420497066
  C   2.08194170511195     -1.75428328311825      0.08010019412262
  C   1.81383820223842     -0.45436923549965      0.48364541532781
  C   2.74888606777166      0.15394158239818      1.34047855877908
  N   3.56434198751063      0.60641526214637      2.03858836682432
  N   3.22859070567703     -2.36817653285407      0.46924218158969
  H   3.29344043785892     -3.36661323640153      0.39729215130154
  H   3.80482877649597     -1.93928602792693      1.17403956947368
  H   1.74244754457141     -3.35646081993855     -1.29261938367894
  H   -0.52057056921382     -3.08434254668896     -1.70799480830320
  H   2.04379300014523      1.96968050734951     -0.33670391883947
  H   -2.61803036663758      2.44919651087958      1.12582077377017
