26
Coordinates from ORCA-job ./opt_b97-3c_parallel
  N   3.95935668885067      2.15049657348326      0.99330519009690
  C   3.11358249735429      1.43513254330455      0.63061869163525
  C   2.13864412273669      0.51667318213829      0.19566794500612
  C   2.54833416402919     -0.79566316104862      0.03580245681133
  C   1.69952065368421     -1.87373558260934     -0.41284484715194
  C   0.35453589874672     -1.93567407993623     -0.46155986592788
  C   -0.66869599481174     -0.95896200126846     -0.18355206951406
  C   -1.90416932303824     -1.48545947043569      0.07470352498091
  N   -3.07743341671616     -0.92931585725954      0.48760964632398
  C   -3.46112873300641      0.27139373608398      0.20048955338704
  C   -2.76081483111801      1.27611431274830     -0.59141175788159
  C   -1.43117102415742      1.37082366925133     -0.74626174038502
  C   -0.37035493027980      0.48106149982862     -0.30402295193492
  C   0.85025930435498      1.05689239407033     -0.16209787967654
  H   0.87728582571121      2.12914817764552     -0.31571027616078
  H   -1.08647775096499      2.26020874657939     -1.26292473038284
  H   -3.37121714222840      2.07402425641669     -0.99783363711439
  N   -4.69703333573609      0.65301421649876      0.64123572200339
  H   -4.89233034573938      1.63266760259070      0.74477565988706
  H   -5.11909892771003      0.04328848256307      1.32180628923239
  H   -1.96253041126093     -2.56986401644016      0.04956903704931
  H   -0.03510734733818     -2.91170733923924     -0.73195768700252
  H   2.22849473510160     -2.78295398776875     -0.67372294572833
  N   3.84392440267177     -1.14312609309647      0.24429649420384
  H   4.47195168454295     -0.48032126137556      0.66728244126273
  H   4.07848744322130     -2.11201805932407      0.35476594778010
