26
Coordinates from ORCA-job ./opt_b97-3c_parallel
  N   5.16101518798185      0.14554411469667     -0.08302302385315
  C   3.99887419665090      0.22775240251956     -0.04914797510037
  C   2.59249387316337      0.25338247636864     -0.01079972848121
  C   1.90818289269212     -0.99848766725825      0.08053231692172
  C   0.53299196092450     -1.19707889221255      0.08793719633829
  C   -0.61502591942038     -0.37544335759263      0.02975483731059
  C   -0.57453647762321      1.08123632945550      0.01595688692178
  C   -1.74289545414712      1.86731223805463      0.05823222043950
  C   -3.09733862622085      1.57260850000133      0.07548673564856
  N   -3.79078635677470      0.45069506067423      0.03689007131150
  C   -3.17796300841711     -0.74690851200762     -0.01223249766067
  C   -1.82290871133570     -1.09744993351196     -0.00886316940025
  H   -1.67718874680065     -2.17147718401129     -0.02228277513371
  N   -4.07603142358994     -1.77207201103581     -0.03319245255253
  H   -5.03327625295741     -1.51339579307860     -0.19317783145750
  H   -3.79322865493530     -2.69751588565579     -0.29571789088177
  H   -3.73353177259328      2.45390131332240      0.11821080356200
  H   -1.55465959509443      2.93330720503478      0.08003342189473
  C   0.62126594561029      1.82719033505321     -0.04056673598432
  C   1.95475138254342      1.48596662752029     -0.06075550532038
  H   2.62846940656161      2.33171999622238     -0.12373914526854
  H   0.45892860367517      2.89644926593845     -0.07781229862406
  H   0.28133589566693     -2.24982287799260      0.15384868715814
  N   2.69052098458550     -2.10542569337173      0.19314017357192
  H   2.28314460867401     -3.01537439084775      0.08920719575905
  H   3.68245920408020     -2.03530392358428      0.04747859807929
