25
Coordinates from ORCA-job ./opt_b97-3c_parallel
  N   -2.05507007021828     -2.98895480493439     -0.97209324313907
  C   -1.85472355002521     -1.88214263400498     -0.67964887405340
  C   -1.66686740976105     -0.51311076163197     -0.35675059494890
  C   -2.78539794014724      0.32154002523133     -0.62173934560088
  N   -3.07472631008461      1.53370535938422     -0.23912554402753
  C   -2.23015138482067      2.29400051744647      0.50109017039156
  C   -0.89187691625300      2.20349867035419      0.71401280353911
  C   0.05103309404437      1.21160587135708      0.26261829943528
  C   1.34568198216675      1.60418620565385      0.05465294776522
  C   2.49890803499337      0.84270909797906     -0.30819094053619
  C   2.65111406821109     -0.51753641475429     -0.16966386493349
  C   1.68816869409564     -1.36139570635532      0.43625658873041
  N   0.38258100404038     -1.20199727551730      0.49505039187919
  C   -0.38509443314837     -0.17698727351183      0.13468809610215
  N   2.12858202429046     -2.51546229643678      0.99716181809669
  H   3.09007329999757     -2.78833412771892      0.92863410313409
  H   1.44542392688465     -3.22530788798494      1.19348614666361
  H   3.61675574663233     -0.94914749242828     -0.40426974606513
  N   3.56953204963233      1.58887739642770     -0.72798730845230
  H   4.33352614526984      1.10592580514890     -1.16614431380024
  H   3.38010577176705      2.49601656009506     -1.11551652942074
  H   1.52211448381522      2.67072766844765      0.13459628394525
  H   -0.45141426712445      3.03166499511435      1.25830920948810
  H   -2.71783280760141      3.16161204967440      0.93582890948224
  H   -3.56807908605699     -0.16275571873392     -1.19994772277388
