24
Coordinates from ORCA-job ./opt_b97-3c_parallel
  N   -4.68025312128882     -1.28530473212893      0.87209351528634
  C   -3.66648906765909     -0.81592488615465      0.55036432611344
  C   -2.45602564312864     -0.20514615534349      0.14432017697569
  C   -2.58961389199831      1.00939097600411     -0.67646920379614
  N   -1.73058301612351      1.92844129911533     -0.86859266395671
  C   -0.49343594620759      1.97096535432765     -0.25398571117398
  C   0.38140235536017      0.97347071016148      0.03089581904437
  C   1.68442750590854      1.40807449484801      0.50726095589137
  C   2.88553111376823      0.81346014837827      0.45343701337118
  C   3.24352244691146     -0.47053515557788     -0.11775696976923
  C   2.36051683065458     -1.47891836441917     -0.38041490286925
  C   0.96431289393935     -1.47939446182363     -0.15908226354239
  C   0.05678131589844     -0.46635948940158      0.00928457169992
  C   -1.28627601044001     -0.87587863139014      0.32973788954962
  H   -1.37903167844941     -1.86968022968163      0.75418724154781
  H   0.53591131591647     -2.47572607961586     -0.14032830655496
  H   2.77990316986160     -2.42333493123133     -0.70854439447400
  N   4.58158508042254     -0.62683178330516     -0.37433579560462
  H   5.23194047462398     -0.04108502992543      0.11781884543810
  H   4.92095642026857     -1.55324986878035     -0.56508901053957
  H   3.71781236518938      1.38793979150252      0.84604228375135
  H   1.68422019578434      2.40390299437224      0.93791811980029
  H   -0.14821207312593      2.98866200710496     -0.10602222833295
  H   -3.53457184398752      1.10234481936517     -1.20793275645467
