24
Coordinates from ORCA-job ./opt_b97-3c_parallel
  N   -4.98773363527140     -0.27830963461087      0.13941567165971
  C   -3.82708510462727     -0.36037273027104      0.15251770181044
  C   -2.41588878965418     -0.38194542645556      0.13230695712451
  C   -1.78070904625045     -1.53764734583575      0.62645559771786
  C   -0.47537679340708     -1.93529599114624      0.57735811928663
  C   0.62802990285577     -1.27283984977943     -0.01512970064698
  N   1.58833958109021     -2.03139424343442     -0.49961890482447
  C   2.83600072498549     -1.76412541129006     -0.84918031298668
  N   3.67280872176150     -0.85485312677281     -0.39709628287214
  C   3.23140673739207      0.23898366665133      0.23726850309302
  C   1.96126686219394      0.78169384241900      0.32164883786801
  C   1.88337023247278      2.06808217084623      0.90866612610868
  N   1.80441839559398      3.13204996175896      1.37099374094965
  C   0.68280302205764      0.18705598236477     -0.06767487396606
  C   -0.37527222565937      1.01657931861645     -0.31379642403884
  C   -1.77492899420502      0.77627083754695     -0.35615343405889
  N   -2.53295399742622      1.79086748682817     -0.81709689576494
  H   -3.53636956409245      1.75581931816502     -0.75664507738354
  H   -2.11583151490545      2.66872125751258     -1.06391209904529
  H   -0.11356393729117      2.06059692314235     -0.43755753266302
  H   4.02000168512776      0.83716373637159      0.68120265032519
  H   3.25961897508543     -2.47535718571077     -1.55251357101078
  H   -0.25780271459859     -2.94254168548898      0.90744152369456
  H   -2.46300209643077     -2.26449201452736      1.04861813332170
