24
Coordinates from ORCA-job ./opt_b97-3c_parallel
  N   4.03059619013551      0.99579078996371      1.60726601813256
  C   3.14325801642577      0.50104262026481      1.04534378344446
  C   2.04375432358653     -0.08981531005458      0.36582997021056
  C   0.95401624604284      0.78074666628979      0.03552245457800
  C   -0.33427788076742      0.39685789451726     -0.19833072045084
  C   -1.36023536391477      1.39413218051585     -0.52912517987768
  N   -0.95093737751101      2.42696643052486     -1.33933316148409
  H   -1.66640151640976      2.96325422379529     -1.80017033100935
  H   -0.13867625483610      2.25805917872647     -1.90654480806448
  C   -2.60847486739192      1.39883156679742      0.03276409326218
  C   -3.20575324628871      0.43932198851582      0.88613039780028
  C   -2.86780686298212     -0.86741988177324      1.06476073922790
  C   -1.82916256946235     -1.54537622957692      0.37319677996520
  C   -0.74218236538908     -0.99696275472063     -0.21605418778396
  C   0.14520033933553     -1.81749758232742     -1.08203521348253
  N   1.38434433053884     -2.05083101772649     -0.89121961649407
  C   2.15338289062601     -1.41866668961333      0.03310313227206
  H   3.02054400302295     -1.97250297423829      0.36637948040875
  H   -0.29909691465437     -2.23462624363457     -1.98460884708202
  H   -1.92533208274739     -2.62426003011133      0.29465883945490
  H   -3.51211433131596     -1.47013842741526      1.69163915661285
  H   -4.10024878149505      0.78004221703290      1.39487029195863
  H   -3.20961736323133      2.28037966219596     -0.16513394661971
  H   1.16378048888389      1.84079822105114      0.08289524891998
