24
Coordinates from ORCA-job ./opt_b97-3c_parallel
  N   -4.95273804504748     -0.53646335538277     -0.62890586027875
  C   -3.79718369014733     -0.48817506559036     -0.48981494868970
  C   -2.41039326191347     -0.36720653118805     -0.28064393385297
  C   -1.94255695345177      0.79828135488869      0.42402883954551
  N   -0.71848726189982      1.27212942583401      0.42378599183716
  C   0.43100682072009      0.76691976455058     -0.02446449321302
  C   1.36824914904826      1.65894730217847     -0.54831317597207
  C   2.70193560539394      1.42940919659932     -0.88410028705837
  N   3.53949812999042      0.47048135947224     -0.54765045953068
  C   3.12240063427659     -0.54974984099186      0.24473010937754
  N   1.94166488392492     -1.13590214863116      0.32654466889936
  C   0.74253794522185     -0.67046382820281     -0.01648463315535
  C   -0.22530171041533     -1.60602272915795     -0.40187723476789
  C   -1.58009924213817     -1.43327776372428     -0.60785154645023
  H   -2.09182363736838     -2.28822592360743     -1.03219903051358
  H   0.16972119422396     -2.59613687876256     -0.58559270069886
  N   4.10653814655855     -1.09876434829246      0.98876382403497
  H   5.04973867776248     -0.81250215928879      0.80171363057275
  H   3.94152416257350     -1.98447523989589      1.43005756519505
  H   3.16477530506496      2.21316301801359     -1.47888026383118
  H   0.98473280822405      2.64818324498541     -0.76185534062163
  N   -2.84453969265492      1.50855583664716      1.13548940574067
  H   -3.82234336440707      1.28335394437022      1.09846160988810
  H   -2.57095134083395      2.41316646207595      1.47268506344499
