29
Coordinates from ORCA-job ./opt_b97-3c_parallel
  N   -0.17247548569445     -3.10920287015076      1.77254404347049
  C   0.18823155048325     -2.16038699364374      1.20025000501011
  C   0.72518681370243     -1.03261893400275      0.55224821403686
  C   2.08319600115880     -1.12788317123078      0.15213255905676
  C   2.82076395278181     -0.14693643879079     -0.52707916628823
  C   2.57072086252309      1.21234216231297     -0.59123255279856
  C   1.49014919965089      1.90091614019648      0.01163232070621
  C   0.28778586596057      1.42110758983524      0.45300803310726
  N   -0.46959451033396      2.26751339296534      1.20859319191138
  C   -1.75833952525329      2.43649350999461      1.15670826083883
  C   -2.72268456803491      1.84773914452836      0.33652909847826
  C   -2.59953855631343      0.63318757735556     -0.31664259843289
  N   -3.64906787387557      0.18709943014425     -1.05699515449394
  H   -3.69127322733877     -0.77904442828392     -1.33372124423433
  H   -4.52959427223322      0.66015299050795     -0.97218873209766
  C   -1.45276658423099     -0.24272513512147     -0.21980811903830
  C   -1.66110087554141     -1.53496140154649     -0.75530873299695
  N   -1.91653965031556     -2.54469047060930     -1.27425073679613
  C   -0.16485064634059      0.04633307881399      0.24150635979510
  H   -3.69789986637121      2.31882214620051      0.32456012280557
  H   -2.13176106764370      3.17677228527376      1.86172619219113
  H   1.62438736799993      2.96432129717082      0.17281201017343
  N   3.47984447702050      1.99875231440926     -1.25307512912747
  H   4.40830348498194      1.64149279379350     -1.39136155100485
  H   3.43381133525427      2.99069147975034     -1.10705356297835
  H   3.75250005295455     -0.48437605462810     -0.96688487096503
  N   2.71941261605009     -2.30284521112285      0.39926819378164
  H   3.62284853447513     -2.46697075504785     -0.00220626197767
  H   2.18902333232361     -3.11522562267434      0.66410890786740
