28
Coordinates from ORCA-job ./opt_b97-3c_parallel
  N   2.90083910671255      3.27724967954485      2.07991471671549
  C   2.54078104741334      2.35911427710801      1.46695941990516
  C   2.05812929310581      1.25755150820283      0.71319177591455
  C   2.94763298231543      0.31475344084807      0.31134609695328
  C   2.67954524464863     -0.88936807408776     -0.43370107885120
  C   3.81641354040202     -1.53841886295243     -0.98529939813061
  N   4.75384584417891     -2.05613661393277     -1.43436558658654
  C   1.47823684009506     -1.54420032152821     -0.51045948453530
  C   0.20413492402306     -1.11564205935056     -0.03261309095793
  C   -0.69219171272010     -2.07502471673140      0.36013570841079
  N   -1.88886507323074     -1.93688333713942      0.95346824560416
  C   -2.72609613388338     -0.96042658944074      0.74840619854057
  N   -3.83897797649763     -0.92964238593743      1.51403085504808
  H   -4.59427940003705     -0.30141699121629      1.30971263020442
  H   -4.03100797908079     -1.73140620557499      2.08819622589801
  C   -2.62751746285572      0.06398500726462     -0.29266018434897
  C   -3.81925691802662      0.53365088316091     -0.87222262204689
  N   -4.79273509672648      0.95087747172498     -1.35690323134365
  C   -1.43993891900078      0.65312173603090     -0.67918968693320
  N   -1.41553862164609      1.62423168603665     -1.60883488750992
  H   -2.24792209979810      1.87625733936139     -2.11624853637837
  H   -0.53502694175008      1.94300528867129     -1.96789058241237
  C   -0.13737485561091      0.32052704021512     -0.06151192478440
  C   0.66508534627927      1.33499920520273      0.30053383950290
  H   0.26182064158546      2.33965336700747      0.26403819850883
  H   -0.35731870877262     -3.10634200966791      0.29320089441775
  H   1.51241675411097     -2.54014549570910     -0.93888082063226
  H   3.98506262106423      0.47267641279182      0.57476032982999
