22
Coordinates from ORCA-job ./opt_b97-3c_parallel
  N   3.97785709572363      1.22296060852693     -1.43040232770034
  C   3.07979866114519      0.68910421749778     -0.92432191674217
  C   1.96607492687036      0.05026534894119     -0.31477153495164
  C   2.02815313184681     -1.31531020904818     -0.17342046314163
  N   1.24295091817518     -2.04460366823216      0.65778833080250
  C   0.02118106953651     -1.79710887106267      0.93006341740662
  C   -0.85948818723215     -0.81897017601659      0.24284763527208
  C   -2.02143117577925     -1.22548703907010     -0.31095470280442
  C   -3.06158759586569     -0.41003558473676     -0.85793028585036
  C   -3.32381737317673      0.87808454537226     -0.53667737459940
  C   -2.60966387301385      1.68933784755781      0.40515001380179
  C   -1.34397481640406      1.54164473536535      0.84548539226877
  C   -0.38371841384870      0.55016268461178      0.37388040253381
  C   0.91295365559243      0.90358238911737      0.14858211665128
  H   1.15997128419758      1.95354223739999      0.24257893844481
  H   -0.97503749692539      2.26001739155289      1.56922235919901
  H   -3.15496777794485      2.54494847971268      0.78760152897517
  H   -4.21426075940137      1.32444112367237     -0.96245486400299
  H   -3.76252925488700     -0.91202298964393     -1.51415000585776
  H   -2.19357473667671     -2.29682138702405     -0.34279413112465
  H   -0.41818827666324     -2.34397137919117      1.76235229168127
  H   2.86811879463117     -1.84903632360252     -0.59680578246138
