29
Coordinates from ORCA-job ./opt_b97-3c_parallel
  N   -4.48712969546597     -1.05413084397327     -2.20578735479727
  C   -3.67500123544821     -0.56838551981060     -1.53133822432538
  C   -2.67575579381793     -0.00096877387538     -0.70120639548841
  C   -1.72876484271825     -0.90804565293237     -0.11557448071050
  C   -0.49898659448106     -0.58676581081511      0.35496528855286
  C   0.33748540370201     -1.61154412075330      0.99412361741798
  N   -0.32666190875851     -2.48099544774464      1.81302778026779
  H   -1.20939386809537     -2.18212610628872      2.18675410227136
  H   0.20645668774217     -3.09248025688046      2.40700225087851
  C   1.66939346602588     -1.77710352130822      0.74721439690395
  C   2.51246971547187     -1.06123720682994     -0.15586773868663
  N   3.67003355637217     -1.70670747200355     -0.49144815834126
  H   4.26078053859768     -1.28830480736140     -1.19087517697963
  H   3.66530372864558     -2.71033726879176     -0.48738834799886
  C   2.31631228175011      0.25245974348916     -0.58482274493193
  C   3.30768904840691      0.81878977273599     -1.40921024168990
  N   4.15433413624632      1.24639320510385     -2.08561722283925
  C   1.27011460515277      1.11711684345419     -0.12729826457367
  C   0.04605481994729      0.76770253981995      0.31663020933335
  C   -0.86923877997398      1.79319409481146      0.88035076179048
  N   -2.05273036727234      2.08324787683080      0.43035883583495
  C   -2.73889443033892      1.35399221098030     -0.46703335376138
  H   -3.51643984658147      1.90701499692882     -0.98089343014716
  N   -0.41358376000174      2.46464947431187      1.95665657283220
  H   -0.97632204456334      3.20024218781203      2.34809434360702
  H   0.54077136174073      2.37209325021178      2.24667137836430
  H   1.49403665728327      2.17726436718983     -0.17622209233311
  H   2.15145717171920     -2.61168724706743      1.24508174173962
  H   -2.01454832758800     -1.95220402474404     -0.11035069468998
