31
Coordinates from ORCA-job ./opt_b97-3c_parallel
  N   -3.55292535334154     -2.05230457657546      1.73448005991386
  C   -2.82786126326397     -1.34647543442902      1.15217790539780
  C   -1.97888167109860     -0.48840129747058      0.43466784049379
  C   -0.72800697846661     -1.04621510487946     -0.05211066405988
  N   -0.73698564629257     -2.42182134007774     -0.31877144464949
  H   -1.54451709153037     -2.90374946584095      0.04339108381008
  H   0.10804167349964     -2.89870412302302     -0.04501074027357
  C   0.38606552709085     -0.31522488151332     -0.30152107388528
  C   1.56188892858153     -0.89998415369876     -0.98150361605228
  N   2.76489944037084     -0.91793692057625     -0.49521122453169
  C   3.05918376331860     -0.29893831026508      0.69493210765783
  N   2.69541238192301      0.87697904310152      1.13813276252082
  C   1.67912124727438      1.58623604004541      0.59240789792954
  C   0.56399800808974      1.11454499804845     -0.03706064091019
  C   -0.42379848860784      2.03613797050080     -0.57765246245870
  N   0.05685206693008      3.22407785379548     -1.05801073437016
  H   1.00062763983532      3.23057536808978     -1.40129193702091
  H   -0.57787388577004      3.83548758953830     -1.54243358055426
  C   -1.77476037825558      1.80925424526744     -0.57444902344354
  C   -2.47773661369214      0.77240175389975      0.09962480627969
  N   -3.79559053283805      1.04807854012000      0.35341752247632
  H   -4.31474744994730      0.39261564686277      0.91380328371972
  H   -4.04461448818195      2.01008638939988      0.49757825427577
  H   -2.40397548511482      2.56726159058160     -1.02863464011807
  H   1.74919617164788      2.65444737306988      0.77136119449249
  N   3.96032299695509     -0.99633786000465      1.44934363202450
  H   4.51111922615984     -1.67961503626936      0.96090196494317
  H   4.43289596288923     -0.46279852446277      2.15834898591948
  N   1.36091252457001     -1.39628727760866     -2.22755580314951
  H   0.42786042613069     -1.69502085372367     -2.45400874066445
  H   2.11465031183451     -1.92735885169455     -2.63177140971173
