23
Coordinates from ORCA-job ./opt_b97-3c_parallel
  N   -1.76481506570251     -1.65106287371432      1.54805290067549
  C   -1.61325227198911     -0.82615871069715      0.48975008532276
  N   -2.64622756136893     -0.19514624960657      0.02663935456756
  C   -2.57604577237768      0.76354728382355     -0.93748575389757
  N   -1.68324552898810      1.67607442474622     -1.16837163087446
  C   -0.46905735104257      1.69364641720229     -0.53748376847236
  C   0.24552882981205      0.63474825569637     -0.08732799813216
  C   1.59562647804554      0.79510844841187      0.51451207368295
  N   2.67052816771697      0.19663258787571      0.11612888197498
  C   2.71125598218346     -0.83645644419149     -0.76860915985102
  C   1.77415263613660     -1.79030400215884     -1.02197565820963
  C   0.44434018654722     -1.81304743804786     -0.51252073938656
  C   -0.24953325039639     -0.73095370965056     -0.08711707741034
  H   -0.06521503125883     -2.77098102126478     -0.50259322752519
  H   2.08865347650514     -2.63492008352342     -1.62195156546362
  H   3.68547092110447     -0.95962014224268     -1.22946618200031
  N   1.67144401795980      1.61627368983550      1.59334114016008
  H   2.58724447226702      1.83124260761600      1.94908977730309
  H   0.93593051559683      2.27511852798403      1.76482892982599
  H   -0.00999557354867      2.67776209474106     -0.49999736754985
  H   -3.48423665931987      0.83967680053866     -1.52858689574270
  H   -2.63342024993441     -1.63487365379434      2.05469753189853
  H   -0.95700554554782     -2.05047246227895      1.98668197420491
