24
Coordinates from ORCA-job ./opt_b97-3c_parallel
  N   -0.97823478219651     -2.49392510978725      0.51110802658390
  C   -1.07765608193198     -1.09153233665268      0.40572652215179
  C   -2.31544538090461     -0.49533765609527      0.81149332345673
  C   -2.83892020434162      0.68291329017107      0.38918464599013
  N   -2.39930554781698      1.45651251000548     -0.65018268619359
  C   -1.16576762185946      1.59951087143549     -0.95021789923681
  C   -0.01428271008160      1.07388938248975     -0.18056272781851
  C   0.98326578849561      1.88757640472624      0.23307573513814
  N   2.12628119300167      1.57315875038475      0.91461321991215
  C   2.73565151402290      0.43467081812814      0.76331526634771
  C   2.44090994849709     -0.67258004688791     -0.08603147201049
  C   1.21162226113781     -1.02269723786054     -0.57012168259363
  C   -0.01691114714443     -0.37177601520128     -0.07035417967002
  N   1.03922158996320     -1.97151599895304     -1.53451915980296
  H   0.17219308500254     -2.48563622796430     -1.51578461859380
  H   1.84362928505204     -2.49900839846146     -1.82890602298388
  H   3.28719322130255     -1.29993107517754     -0.35076341346638
  H   3.66784814339657      0.34714829447226      1.32007248987822
  H   0.85680355951866      2.95443291447751      0.06725496853524
  H   -0.94860834954380      2.11944943792233     -1.88251996899079
  H   -3.79316826788252      0.99521238718284      0.79601713948299
  H   -2.93223871153279     -1.07983190733239      1.48668308588618
  H   -1.75059447988363     -2.90546452827413      1.00967659894483
  H   -0.10579894397077     -2.80285163894775      0.91640314765225
