28
Coordinates from ORCA-job ./opt_b97-3c_parallel
  N   5.34145210946958      0.47712370448376     -0.27191716302789
  C   4.17692765878146      0.49082661782421     -0.29037073721018
  C   2.77132392041863      0.46519495502062     -0.26055669866648
  C   2.12445583188013     -0.56549593241075      0.47432839240020
  N   0.85187304895299     -0.92294453100720      0.37152509943594
  C   -0.21428356828586     -0.29349967314019     -0.08554966871454
  C   -0.23390015409160      1.16730184087520     -0.27937213706106
  N   0.79726955823801      1.76794408746776     -0.92152850433808
  C   2.05594518780575      1.43854025751628     -0.97516626784529
  H   2.64540937172281      2.04666978657249     -1.65602296883888
  C   -1.27110710330021      1.97479297818254      0.11533706395395
  C   -2.60591913517264      1.63872864605328      0.42670920491264
  C   -3.24406701691274      0.43286267306946      0.16735776374306
  C   -2.70977891043524     -0.76154124801189     -0.32046654988071
  C   -1.32946926166025     -1.10585855689032     -0.40236541561547
  C   -1.04580557656397     -2.47169409304074     -0.61858337564907
  N   -0.91021697908809     -3.60929910026098     -0.82423486517257
  N   -3.60217664319623     -1.72412022081156     -0.68182908288140
  H   -4.56092192655267     -1.62356523200119     -0.40499475688284
  H   -3.28060301996239     -2.66799227143475     -0.81630943990001
  H   -4.31618550600221      0.42529190872399      0.32814887437383
  N   -3.36287790577190      2.64717358375013      0.96414223287202
  H   -4.36305244010907      2.58328582531237      0.89970115036313
  H   -3.00145639599083      3.58266246112900      0.92062656144296
  H   -1.04485278823605      3.03372540531320      0.06775994684278
  N   2.85238913343825     -1.32732650906129      1.31829055320777
  H   2.44606244260326     -2.19388726474114      1.62257502210198
  H   3.85214083880867     -1.23203540929235      1.35279786222878
