30
Coordinates from ORCA-job ./opt_b97-3c_parallel
  N   -4.08809108145698     -2.44977389434186     -1.60853683526761
  C   -3.21025951326772     -1.86614444493118     -1.11875619006517
  C   -2.17455132847546     -1.12005373408059     -0.50364406578756
  C   -1.00062139897104     -1.77274748047116     -0.25761864198440
  C   0.21193895120790     -1.25141000588980      0.27053914482143
  C   1.04785319993425     -2.15307024673592      0.88117451667068
  N   2.17286931228126     -1.90357577936907      1.58391228000336
  C   3.05474547403918     -1.01384140267072      1.26901695590938
  C   3.08743307333781     -0.18023880394977      0.09506326536750
  C   4.34377692123502      0.20596658369675     -0.41204280598168
  N   5.35455506967855      0.56381626782489     -0.86554735229414
  C   1.94653502887752      0.32729188200470     -0.51585350534829
  N   2.03416953128912      1.02450104391675     -1.66046758441417
  H   1.26246861727791      1.60649772898686     -1.93591931358939
  H   2.93683199430764      1.23823031658506     -2.05429618251171
  C   0.59596434985147      0.14757895402782      0.05772708540775
  C   -0.22839055634372      1.22062253698637      0.21134532203271
  N   0.26455433171498      2.51020750558136      0.04124459628193
  H   -0.35675108387703      3.25166106547294      0.32060232045613
  H   1.19978804918042      2.66360461316003      0.38273237808053
  C   -1.65970807166904      1.15394363752015      0.48800190454458
  C   -2.23775050579804      2.28049749783389      1.10138703561269
  N   -2.74858516933021      3.20836868480389      1.58843846647183
  C   -2.55059207688903      0.18843047110741      0.03336651952525
  N   -3.87559689957532      0.40571080618054      0.12254160068595
  H   -4.53813725297063     -0.30866523896540     -0.12056054044929
  H   -4.23094038488113      1.26348483036312      0.50771820248858
  H   3.91319948002540     -0.94188535847194      1.93117078387445
  H   0.74035708892962     -3.19464463327754      0.90053229502332
  H   -1.00560657806522     -2.83555862771515     -0.47458360745778
