23
Coordinates from ORCA-job ./opt_b97-3c_parallel
  N   4.88591821830430      0.74028631562592      0.37110686524548
  C   3.73044249176341      0.59895818502647      0.35774500535810
  C   2.34151219398920      0.37918663277039      0.28771083674072
  C   1.87342214588016     -0.75599862323898     -0.45753938387908
  N   0.69310121356352     -1.33610686754027     -0.32832641718919
  C   -0.43016744941476     -0.85365192785026      0.18855499069877
  C   -1.39716420652364     -1.70515761057307      0.71956960700409
  C   -2.74495571021488     -1.40865527104250      0.92171871373562
  N   -3.50490086809381     -0.43984882115840      0.44715344812512
  C   -2.98918728011211      0.55382731555713     -0.31226537085132
  N   -1.79521701879398      1.12541432225509     -0.24394244833533
  C   -0.69271882118539      0.60110373569690      0.24699989854447
  N   0.18641935076021      1.41101309986333      0.82619906036083
  C   1.48448425679906      1.25566324410537      0.95121545025078
  H   1.95588740060224      1.96057200373014      1.62910009015349
  N   -3.86276689926454      1.10356269822554     -1.18260959089425
  H   -4.82880821679728      0.84713986627120     -1.09219055544792
  H   -3.63605293782357      1.99219007834836     -1.59018456897174
  H   -3.30056791472674     -2.14475941240755      1.49661508580925
  H   -1.07009069790948     -2.70342142062125      0.98076019478915
  N   2.72779090594416     -1.35880409734875     -1.30827649245697
  H   3.68791306397403     -1.06888251760649     -1.36413207521210
  H   2.47884145985736     -2.26513813340255     -1.66083840751283
