29
Coordinates from ORCA-job ./opt_b97-3c_parallel
  N   2.53511868112166      2.89417555778216     -0.61242018440879
  C   1.56240699681130      2.27203868625988     -0.49066460012976
  C   0.34041066968375      1.55022270833257     -0.42177900549645
  C   -0.81480981109241      2.31290553877712     -0.79543122935849
  C   -2.11752838321034      2.06032937363479     -0.55597965819095
  C   -2.67292353576107      0.96399600229576      0.18486520657188
  C   -2.03636457746771     -0.25406655242482      0.37022630031523
  C   -2.72390409510069     -1.22520083996629      1.12151176038757
  N   -3.34382477217508     -1.98983567835708      1.74486706475631
  C   -0.77065434648143     -0.67484684689546     -0.23394820925066
  C   -0.68694972232578     -1.92181753080788     -0.77723813799771
  C   0.45798794826414     -2.59741059051230     -1.26297318675497
  C   1.76237506619991     -2.39543252016980     -0.95558438045665
  C   2.27264481890010     -1.48781095470859      0.02492838264935
  C   1.60253806117780     -0.34867567660931      0.47164858947909
  C   2.19940240996245      0.36458156904767      1.52938576411411
  N   2.72712990684993      0.87897298350992      2.43087285154600
  C   0.38906349143581      0.20918269864353     -0.10717294390498
  N   3.51434027832461     -1.75928741647608      0.49350550249555
  H   3.90872970236989     -1.19672151426504      1.22828239689058
  H   3.90433692703615     -2.67401521488023      0.36756513999100
  H   2.48959661481770     -3.06534771264002     -1.39769638130879
  H   0.25144868669051     -3.42931901922810     -1.92592598156743
  H   -1.62275606726329     -2.45409158117734     -0.89162124432192
  N   -3.93677304595618      1.15610208412491      0.64890134305661
  H   -4.26926982992396      2.09545531629052      0.76553784674192
  H   -4.34194025527876      0.47032507180551      1.26406793552122
  H   -2.82951596424030      2.80823632161761     -0.88238773828458
  H   -0.59221217487465      3.25108843099497     -1.28662185778593
