24
Coordinates from ORCA-job ./opt_b97-3c_parallel
  N   3.25322713024419      2.42760746725302     -0.31399565592606
  C   2.54447148321139      1.53582599601243     -0.08064007727409
  C   1.76114583729835      0.37970108406782      0.12605629594697
  C   2.33447924896660     -0.88236701546421     -0.29948282708155
  N   2.05346405545582     -2.08667118649040      0.17484457182155
  C   1.03554724571280     -2.33677992244734      0.99537814001513
  N   -0.12340476442205     -1.75129403809582      1.12555332298890
  C   -0.47575240007998     -0.55765240735138      0.62891760209788
  C   0.47540425591019      0.55664526456973      0.63017161326758
  N   0.12258455595600      1.74957193455802      1.12818857573336
  C   -1.03624140013967      2.33524855602410      0.99775276092856
  N   -2.05337888691721      2.08632184685952      0.17589410467246
  C   -2.33394581466560      0.88270032968404     -0.30042693983086
  C   -1.76101611269270     -0.37997990896861      0.12384006438172
  C   -2.54414741568598     -1.53580368160988     -0.08526166740963
  N   -3.25268166109300     -2.42724889086670     -0.32056721717746
  N   -3.33095024704700      0.83458719976117     -1.19793515547533
  H   -3.85060339773982      1.67834084385522     -1.36328786120851
  H   -3.71250279113252     -0.03981917096131     -1.51310695331449
  H   -1.15792942942001      3.23410803675807      1.59424718756572
  H   1.15667182923550     -3.23649466123918      1.59069666439063
  N   3.33233097139111     -0.83296567607475     -1.19597903327791
  H   3.85214054790194     -1.67648175949225     -1.36205063379643
  H   3.71418458505059      0.04189069125915     -1.50953364153960
