32
Coordinates from ORCA-job ./opt_b97-3c_parallel
  N   4.65214450139245      2.09272438172749      1.20553910672913
  C   3.75010494303432      1.50185598764770      0.76831021602529
  C   2.59651623205629      0.85794378574065      0.26845840828117
  C   2.78119533759181     -0.36947715838769     -0.41605794389125
  C   1.87876071033285     -1.35367914618275     -0.71753268015746
  C   2.35847504568415     -2.48335828575675     -1.42265707041285
  N   2.70490775058967     -3.44062919512775     -1.98516187682510
  C   0.50882416807573     -1.43063740689566     -0.21966167023024
  N   0.01695185940457     -2.70735336506806      0.01060429609980
  H   -0.97246321729808     -2.82115585606691     -0.13878205668271
  H   0.54460275595451     -3.45308876665243     -0.41424388724368
  C   -0.22070344858154     -0.32819623937188      0.10044736219233
  C   -1.49888737489957     -0.44721437741949      0.81695108497492
  N   -1.47206712357202     -1.04811464191048      2.02120893387620
  H   -2.32706030589094     -1.24574467431082      2.51569137701765
  H   -0.66181683602010     -1.58644028569887      2.27000002655775
  C   -2.66921595960558      0.05393849593108      0.27722735959541
  C   -3.87657047689137     -0.17019378592752      0.96112345541730
  N   -4.86377894317220     -0.39303836568907      1.53891860527706
  C   -2.71772686395237      0.73141797172521     -1.02205229558604
  N   -1.84893331241510      1.57448703192480     -1.50460348208708
  C   -0.67048415438365      1.87825900752627     -0.91850644956182
  C   0.15216572415441      1.05846571693847     -0.20790348462428
  C   1.39217882021468      1.57073565370420      0.34780448938879
  N   1.37413967439871      2.80158651293982      0.88140153558871
  H   0.50105387025958      3.27386318430171      1.02052772016633
  H   2.21004931181446      3.22548564732907      1.25049116151228
  H   -0.32335630984546      2.88296299267435     -1.14132192699898
  N   -3.82695569965067      0.49945324896310     -1.76922107625706
  H   -4.62194578745622      0.03807531914540     -1.36546405832772
  H   -3.99782627256191      1.13162963123237     -2.53170167521337
  H   3.80395932153287     -0.57068962209912     -0.70834126719971
