23
Coordinates from ORCA-job ./opt_b97-3c_parallel
  N   2.12292966842947      2.82578246031298      0.68196912761701
  C   1.71017960404374      1.78120848706541      0.38037417340530
  C   1.30627755659711      0.46340534272560      0.07340753226778
  C   0.04089885620439      0.30882968624286     -0.50547969700436
  N   -0.57255233846570      1.34240599498993     -1.07695919850682
  C   -1.87230445661969      1.56238335697056     -1.13840540465608
  N   -2.86480252043335      1.07740308537424     -0.41315959148393
  C   -2.68749475984335     -0.05143592093839      0.30136157682466
  N   -1.84652563147114     -1.06295993995010      0.07543045834042
  C   -0.65365349835105     -0.99275047510904     -0.47651726395543
  N   -0.12089305426694     -2.09069739568288     -0.99867358224269
  C   1.15206848590464     -2.42843600401689     -0.93532026904659
  C   2.19377740948836     -1.86884422098495     -0.21478388725276
  C   2.26331508381872     -0.57424974307035      0.31591299673639
  N   3.36956081752386     -0.23928010715860      1.02156265099879
  H   4.15297765851705     -0.86550782651102      1.03277330503549
  H   3.56359697821084      0.72636626967511      1.22648545442354
  H   3.09024237649296     -2.47089632448260     -0.13201117575264
  H   1.39257760962902     -3.33322133022615     -1.48661022988819
  N   -3.56790295343093     -0.23975222383527      1.30346108290917
  H   -4.33967047771254      0.39745954069929      1.37695224739099
  H   -3.64853785552237     -1.15355023884030      1.70993486349467
  H   -2.15835890654213      2.34218096644997     -1.83730583845488
