20
Coordinates from ORCA-job ./opt_b97-3c_parallel
  N   -4.06281576947049     -0.37534475508241      0.59972030182046
  C   -2.93807005429508     -0.60233134965522      0.42456974819564
  C   -1.56376560628921     -0.88485655078347      0.23723235801244
  C   -1.12214592379896     -2.20324893048021      0.40034901614846
  N   -0.00125080144911     -2.77807532795645     -0.00160895631048
  C   1.12018267853179     -2.20407172383012     -0.40312923765796
  C   1.56300195231272     -0.88613758307757     -0.23924293749075
  C   2.93760173379519     -0.60480937050158     -0.42623207760067
  N   4.06256634995935     -0.37878277080752     -0.60121589683347
  C   0.71799581862563      0.17327012478804      0.16565854369280
  N   1.15867081176097      1.22338520663235      0.82285339221073
  C   0.71704317668045      2.46115426664252      0.89197028284422
  N   0.00158565570846      3.14001644889736     -0.00069479774458
  C   -0.71466535955849      2.46198728683655     -0.89329207887436
  N   -1.15762892413040      1.22465044366260     -0.82418732444815
  C   -0.71782542632095      0.17397606936551     -0.16738937361542
  H   -1.06945958845045      3.02536928183553     -1.74929462351915
  H   1.07230079129986      3.02412034792094      1.74805437950271
  H   1.83951202347761     -2.89322241825495     -0.83294240540281
  H   -1.84206567218956     -2.89199424225103      0.82982484847047
