30
Coordinates from ORCA-job ./opt_b97-3c_parallel
  N   4.31582909162656      1.35028417625076      0.92280254874300
  C   3.33989668297029      0.80063732036502      0.59655391722837
  C   2.14891452606183      0.18019011019689      0.18649856877014
  C   0.94583656552094      0.78790705641366      0.50010353717813
  N   0.91081513095813      1.88620925003414      1.28738712055077
  H   1.76910312293801      2.35660360125865      1.52574479386357
  H   0.08053273187638      2.45124284347219      1.25926808295800
  C   -0.34544371348927      0.26399045356611      0.03367741739658
  C   -1.25867430352379      1.08861008482485     -0.55976048488044
  N   -0.88152177985169      2.38803616212042     -0.93450422521513
  H   -1.55846302131481      2.85943094199574     -1.50984495472370
  H   0.04266569772703      2.45979361908937     -1.33148047609997
  C   -2.63968022201727      0.77969386150888     -0.80513044005589
  C   -3.44629130087679     -0.04277498436090     -0.07801217199660
  N   -4.81422779818146     -0.03168620857133     -0.28701183294904
  H   -5.12745256150765      0.40730236514022     -1.13648458086033
  H   -5.29210223858791     -0.89832143293644     -0.10425935332866
  C   -3.02450584733511     -0.94419267538917      0.97251877632811
  C   -1.79619458321600     -1.47032392378299      1.13030621572980
  C   -0.59616676958071     -1.14100574903064      0.39555993725606
  C   0.31576847323653     -2.12327319329378      0.16615014306542
  N   1.46070666326690     -2.07074034733337     -0.56423943705047
  C   2.24829676561004     -1.04457639839211     -0.61530301523851
  N   3.31953913858050     -1.11319336973454     -1.46638351725283
  H   4.09969633162402     -0.50158080424696     -1.29905879095942
  H   3.55581460675635     -2.04226611949223     -1.77163577014429
  H   0.07630122894057     -3.12057407133338      0.52518051173791
  H   -1.70068062237694     -2.25252394774240      1.87800829542550
  H   -3.81509121448895     -1.30692162195927      1.61917559357986
  H   -3.12168059774620      1.37587598696275     -1.57473278245727
