23
Coordinates from ORCA-job ./opt_b97-3c_parallel
  N   3.29848418723433      1.33579133001772      0.85600056618292
  C   2.32833231385865      0.51603161399711      0.31609090386739
  C   2.64557158638113     -0.78486134379101      0.00053860986438
  C   1.78241261212784     -1.76408194279858     -0.52845071554894
  C   0.42449218313883     -1.79286185016675     -0.61213791315751
  C   -0.49732261425640     -0.83196330200681     -0.06474143606167
  N   -1.59997149095748     -1.30113274283450      0.44123722316632
  C   -2.72816335164183     -0.66961385351926      0.82750775223182
  C   -3.24098874152484      0.50111600465164      0.36061670216251
  C   -2.53993851677249      1.41073871408112     -0.47442355334871
  C   -1.20650552249346      1.45617845523713     -0.70599925665609
  C   -0.16288373733756      0.59643866233997     -0.17006823261582
  C   1.06341379721844      1.13877375872737      0.07404113810961
  H   1.09591395078668      2.22426867215845      0.04564503578326
  H   -0.84840572195067      2.23264286769282     -1.37250062282508
  H   -3.13255195763113      2.18870710120877     -0.94351403593229
  H   -4.25929546936232      0.74796004238688      0.63312440247635
  H   -3.32842947597829     -1.25209240127450      1.51968762373575
  H   -0.04267477952907     -2.69053912446273     -0.99648179511813
  H   2.28366216004041     -2.65940190568948     -0.88046743783474
  H   3.67994873953273     -1.08207223017163      0.13079388018410
  H   4.25501345765924      1.05475417785485      0.72627972573800
  H   3.15921461005709      2.32711957486112      0.76958638419650
