27
Coordinates from ORCA-job ./opt_b97-3c_parallel
  N   -3.99311809699616     -1.30591446050687     -0.83357636208326
  C   -2.84757127903169     -1.19946130592033     -0.68535400750199
  C   -1.43291590223420     -1.11074621436608     -0.58084729515832
  C   -0.71559559545562     -2.23694379180902     -1.12001062050099
  C   0.52769806474684     -2.64950344455753     -0.81438338902051
  C   1.42921869180426     -2.07883707806921      0.15521399722856
  N   2.36177127047452     -2.91410361304807      0.64735581314417
  H   2.33257980001989     -3.89535097672568      0.44590276068168
  H   3.03706791443148     -2.59702937956427      1.32259082098160
  C   1.42450724237739     -0.73781103220910      0.53124214186706
  C   2.37933258045093     -0.33586890938229      1.48501590966800
  N   3.17270260748142     -0.09503600269623      2.30126098779561
  C   0.56027212538616      0.27890442594241     -0.03821522420602
  C   1.07646839976453      1.48455381772972     -0.47586090023175
  C   2.47775101804440      1.60173573014110     -0.66038224259571
  N   3.61184210877537      1.72705087424928     -0.87365458993651
  C   0.30589104395700      2.61261979743086     -0.93501413748113
  N   -0.86393073507756      3.00674073425835     -0.54873528498697
  C   -1.60843181708918      2.37326549159549      0.38557572722648
  C   -1.69043575096263      1.03423568222190      0.62949224827312
  C   -2.56943842909900      0.57480000547359      1.63937529829624
  N   -3.25557019111032      0.18921802523373      2.49332148621774
  C   -0.87630616406259      0.02337968720884     -0.06181577947814
  H   -2.26521234800940      3.02594132764104      0.94871568214502
  H   0.80027376640872      3.24893720216320     -1.66284640281258
  H   0.86650154358120     -3.56829176607228     -1.27679331498704
  H   -1.28427433307566     -2.86073699046244     -1.79642086764451
