25
Coordinates from ORCA-job ./opt_b97-3c_parallel
  N   4.49430400880164      1.03185751443862      0.96892094313038
  C   3.37182236227274      0.93142298022615      0.67862457937713
  C   2.02186012648530      0.75094922142624      0.30349434904213
  C   1.21162865907309      1.87194517907250      0.31752064440511
  C   -0.11166388382348      2.04166451445311     -0.06575781762006
  C   -1.05948834282785      1.07295780298837     -0.33234383137609
  N   -2.19271709079557      1.46639785686428     -0.95813105552926
  C   -3.43431344754047      1.20974958688544     -0.69898285044030
  C   -3.94742574913302      0.37816054938146      0.31705671030620
  C   -3.23297598287979     -0.67773604207880      0.82331854077197
  C   -1.91406948390789     -1.06320059045507      0.53880382129750
  C   -0.88132014569258     -0.34426600781583     -0.04022941023134
  C   0.35001581370603     -1.02299781780430     -0.36772328020835
  C   0.22729612429187     -2.37093355840110     -0.75660993250717
  N   0.18696263840008     -3.48953017408808     -1.07998118490508
  C   1.66476203087037     -0.56199629110562     -0.18086876440522
  N   2.68484413555717     -1.40327503711489     -0.42851029576522
  H   2.51243409522065     -2.35810989672227     -0.69161569212027
  H   3.63298256064111     -1.13081781968070     -0.23803377898590
  H   -1.64564076858541     -2.05410279821164      0.88142530602294
  H   -3.77650675553428     -1.36264872458676      1.46353572014029
  H   -4.99997446667056      0.45867920862571      0.55233187376868
  H   -4.14828670550636      1.66844252115694     -1.37930283390219
  H   -0.45332247033880      3.06116452885567     -0.18894994134204
  H   1.71917362381309      2.78220228829267      0.61134467897752
