23
Coordinates from ORCA-job ./opt_b97-3c_parallel
  N   4.12428571251718      1.65970689992279     -1.50967075252730
  C   3.31780581834742      1.00142166773862     -0.99509743374718
  C   2.31281896687642      0.21825312707511     -0.36807042367630
  C   2.50648205610898     -1.13358789892509     -0.30603984104393
  N   1.82340352943784     -2.00166202023805      0.49115380691455
  C   0.58303337612773     -1.93207815442041      0.78193386388923
  C   -0.41638683266274     -0.98060827037324      0.25790147574494
  C   -1.63315310536631     -1.45249621069019     -0.10318465236130
  N   -2.71843047491815     -0.79971259324835     -0.60923342835192
  C   -3.04330693675916      0.41243798517871     -0.28962289786710
  C   -2.38359468366696      1.29275068505763      0.67391112083049
  C   -1.07532473871537      1.30747338297863      0.96261295907754
  C   -0.05190384214824      0.42695227480183      0.41048363347208
  C   1.18860914573294      0.93028709480190      0.18344896599475
  H   1.33962553754774      1.98793928519866      0.35928787699926
  H   -0.73036859474984      2.07546035610328      1.64690143795386
  H   -3.01435018326682      2.03949613551985      1.14246936088380
  N   -4.19140323416728      0.91887460569500     -0.83126913650200
  H   -4.29893118288433      1.91554188542860     -0.89197731301503
  H   -4.57842632613167      0.38781448227719     -1.59368943045349
  H   -1.75921984533052     -2.53188904270529     -0.08658086729332
  H   0.22880736634541     -2.64484646956712      1.52565273435442
  H   3.36640034992597     -1.56274553320988     -0.80343817307627
