29
Coordinates from ORCA-job ./opt_b97-3c_parallel
  N   -5.06747444636068     -1.07021623338332      0.45245423420289
  C   -3.96239868733776     -0.74458787645676      0.28732725708308
  C   -2.59653626684226     -0.43272951449953      0.12105782109860
  C   -2.27904410606540      0.81729731401085     -0.44017187221467
  C   -1.08042708794654      1.47499136669324     -0.53419639654947
  C   -1.11813935614540      2.74163720137795     -1.16931877872924
  N   -1.14138830993729      3.78394256708334     -1.68366197049702
  C   0.21462495831301      1.08243347622885      0.02026342392091
  C   1.03050611191714      2.07637251719599      0.48612531755642
  C   2.34539714726342      2.00327345496917      0.99310159351168
  C   3.27898336249467      1.03494424916822      0.83039109371447
  C   3.15244908821510     -0.13484241849411      0.02197921693918
  N   4.31937052775933     -0.75479523651599     -0.28778139704595
  H   5.18008197984322     -0.24828519150346     -0.19736258745882
  H   4.32253943176151     -1.52886822757862     -0.93034892966589
  C   1.94515077239693     -0.69334704259626     -0.40476021112862
  C   2.05869117875874     -1.85030701158257     -1.19934977632487
  N   2.22380199436641     -2.80534717380385     -1.84658858574851
  C   0.58579652537136     -0.32932803101711     -0.00062512211446
  C   -0.26839483586132     -1.37541573440014      0.22259358289963
  C   -1.67147500243794     -1.44511126980385      0.43480480412227
  N   -2.13385276045719     -2.62000278649689      0.91076481558036
  H   -3.12173941036453     -2.79807892989252      0.97263534104391
  H   -1.51519421316975     -3.39939482795886      1.03195137418645
  H   0.21380360885832     -2.34422917762824      0.26203415909499
  H   4.25660845978851      1.20348821669795      1.26426343913828
  H   2.66675680413928      2.87897644978972      1.54451087389154
  H   0.59120870923727      3.06461018857312      0.51915127053996
  H   -3.13025559272570      1.36139133260217     -0.82752334555780
