22
Coordinates from ORCA-job ./opt_b97-3c_parallel
  N   -2.61086344506849     -2.66578460472175     -1.02874755759928
  C   -2.18574513484946     -1.63075187351875     -0.71426326966731
  C   -1.67722965780197     -0.36067063857039     -0.33932768958847
  C   -0.31607417833654     -0.33086951872793      0.09229320129472
  C   0.29722256525013     -1.51625709918254      0.50800630991805
  C   1.63590674879540     -1.78281560685978      0.78703901274764
  N   2.74685375061288     -1.12898669994166      0.50212550802826
  C   2.66742706246195      0.05555652397606     -0.14223659995121
  N   1.72829134949278      0.99701899030884     -0.09795463350492
  C   0.43208598802086      0.91842024130884      0.13782739976476
  C   -0.18998031464319      2.14190996892268      0.50445231396720
  C   -1.50504275151707      2.52552040350226      0.46564823384499
  N   -2.60041753017537      1.93285511773392     -0.03316301719477
  C   -2.62165024521803      0.67971216187466     -0.43084950260384
  H   -3.57133443946646      0.37447481388106     -0.86098984874495
  H   -1.70248141369917      3.52416126686868      0.84484980437922
  H   0.51664185202733      2.89708512623386      0.82550955411016
  N   3.75966066868776      0.37265163762782     -0.85353660114813
  H   4.53617108960120     -0.26250179585274     -0.86098705521536
  H   3.84316923367930      1.28238557253539     -1.26758228021095
  H   1.81547051235771     -2.73959919359801      1.26961427224806
  H   -0.36789281572014     -2.34933889840552      0.69025080541603
