20
Coordinates from ORCA-job ./opt_b97-3c_parallel
  N   -4.70358316082579      0.16700451851398     -0.56408349553818
  C   -3.56609106281259      0.09265012795104     -0.34006199977689
  C   -2.18078713007448      0.02601832352182     -0.06331138091211
  C   -1.44000104579189     -1.01663872683287     -0.60056869161032
  N   -0.20908320523448     -1.39830891533943     -0.27416990838908
  C   0.72741163585900     -0.68514204184158      0.28980396729289
  N   1.75867629692594     -1.31132432579989      0.88646114414014
  C   3.01197991384198     -1.09168896361476      0.62166178955059
  C   3.55514769484952     -0.14927121890909     -0.28170227357782
  C   2.93750042271376      1.02054630923428     -0.65340079758496
  C   1.67703743616533      1.50966634633624     -0.26284652575638
  C   0.67055102445891      0.77664999117325      0.31643680769055
  N   -0.38878152379300      1.35053334394774      0.95139637030701
  C   -1.62960410350064      1.01214099823087      0.81597038239209
  H   -2.33341856258811      1.56535272532174      1.43057236588999
  H   1.47963395757216      2.56295440398465     -0.41872915818040
  H   3.54122589592339      1.71253831781824     -1.22841261231851
  H   4.59132855787229     -0.28559929244464     -0.56081350357968
  H   3.71463343901895     -1.70778070885847      1.17616282600477
  H   -1.93522649568037     -1.66530286699309     -1.31431032584367
