26
Coordinates from ORCA-job ./opt_b97-3c_parallel
  N   -4.02665695436026     -2.25061502591090     -1.20059749039907
  C   -3.24889702953034     -1.47124223775224     -0.82671634901033
  C   -2.28613529649444     -0.54203892261998     -0.36156295675254
  C   -1.11244609093497     -1.08980884761183      0.26359961260169
  C   0.07418945201173     -0.48140438001102      0.47578185872721
  C   1.10385468101952     -1.17269506991442      1.25917815909216
  C   2.39429901033147     -1.28194869042218      0.92473798963328
  C   2.98205851107115     -0.74559651268175     -0.30072260613879
  N   2.65371889025576      0.34457632636226     -0.91590627391540
  C   1.63662604835450      1.17216200655843     -0.53346293922952
  C   0.44182358146662      0.87183933348206      0.03732045495896
  C   -0.51296887849765      1.95059884054273      0.33062748617477
  N   0.03647762588118      3.11496788402611      0.78764516961767
  H   -0.57056276402301      3.80758369121980      1.19099194548568
  H   0.95841240646467      3.06849981251983      1.18266934023427
  C   -1.85999145246396      1.88554796038037      0.07472071363021
  C   -2.60454638993071      0.79324697850442     -0.40466350659801
  H   -3.59161353456952      1.03347618457686     -0.78034225590633
  H   -2.41978435190272      2.80463870876483      0.21109909678100
  H   1.79277904381021      2.19833898813904     -0.84881252124418
  N   4.07577126772099     -1.43007764100414     -0.76582606871565
  H   4.38813491509779     -1.14763102579723     -1.68060142944352
  H   4.11975818980793     -2.41815257725056     -0.58692868476932
  H   3.05729363177204     -1.84061887153891      1.57580277867696
  H   0.78084790147124     -1.64979593324695      2.17932695397239
  H   -1.20656186602942     -2.11374677841466      0.60793979473654
