26
Coordinates from ORCA-job ./opt_b97-3c_parallel
  N   1.44619376155972      2.63888170771118      2.09575383495766
  C   0.72229742644959      2.04933658222972      1.40262116209353
  C   -0.17889918038658      1.30917876985349      0.60398242709466
  C   -1.39253600373274      1.87277793573427      0.29624126629521
  C   -2.49752743670524      1.29957362905912     -0.34352547884579
  C   -2.78624122777095     -0.04633094013693     -0.42451138844766
  C   -1.98114207495141     -1.09229310684837      0.13671424748037
  C   -0.64979142062925     -1.11312714065109      0.39560029210943
  C   -0.08964519457936     -2.27802907809794      1.08159083975765
  C   1.03183779811838     -2.94409449972076      0.74953189062278
  C   1.96288064316130     -2.61209364541038     -0.28010440603409
  C   2.15780942108010     -1.38631953927356     -0.81674795520338
  C   1.48829885716957     -0.16131911849104     -0.47214370013977
  C   2.17717406150656      1.01314177068267     -0.88412713871079
  N   2.75603598269612      1.93155679358192     -1.29493856964408
  C   0.26332634488242     -0.00797608553570      0.13667251934588
  H   2.97412109273796     -1.27462091404759     -1.51794663641531
  H   2.63822310801357     -3.39846974182235     -0.59244007964229
  H   1.24761728176882     -3.84512856629701      1.31249834433035
  H   -0.67479306641146     -2.64940268958778      1.91536101407431
  H   -2.51708284562442     -2.00713612110153      0.36682230142301
  N   -3.99977918170393     -0.44815496448730     -0.92057185046345
  H   -4.08121423569619     -1.39376762864754     -1.24926846156828
  H   -4.53153758706937      0.21931799665340     -1.45077636755419
  H   -3.25967401425591      1.98792658666100     -0.68893784019721
  H   -1.49852826572725      2.91637895158972      0.56771938088159
