26
Coordinates from ORCA-job ./opt_b97-3c_parallel
  N   -0.24404558049933     -3.81315101370342      0.84641703340975
  C   -0.52941956404915     -2.70294879039889      0.66241982757052
  C   -0.88762438348064     -1.34933727206498      0.44309783976682
  C   -2.23106283400970     -1.00019589329055      0.64233507553002
  C   -2.91698038187317      0.13854247971009      0.27010218637717
  C   -4.31634448590414      0.17409737303763      0.45436844931735
  N   -5.47121506012442      0.25951625542895      0.56200508714896
  C   -2.32477665797030      1.25063328701806     -0.44617866239547
  N   -1.06832493959674      1.61889286094725     -0.36917092567286
  C   -0.04614997592419      0.97615036591921      0.16925412161163
  N   0.85288921846097      1.67275255368563      0.83508176327718
  C   2.12601171494184      1.41130446366043      1.05225829420347
  C   2.96547723050144      0.54798530684384      0.35927277339632
  C   4.35954563102345      0.65277035384710      0.53510504194414
  N   5.51763891721855      0.70749397433783      0.62880784670917
  C   2.46804065386666     -0.45998171581366     -0.53764042765943
  N   1.24740620134371     -0.96508933862430     -0.50518057597715
  C   0.13837469391713     -0.48049007773368      0.01605823157445
  N   3.31241869493873     -1.02041786831730     -1.41896610521794
  H   4.28913461688066     -0.78453838548254     -1.41765703140602
  H   3.02572222135333     -1.86740101933018     -1.87701738069771
  H   2.58252426151116      2.01380167214343      1.83010468128128
  N   -3.12872830932808      2.00678464422740     -1.21300333953005
  H   -2.76724765923120      2.86979294063767     -1.57709971507027
  H   -4.12140725828226      1.85531984211696     -1.23192836754606
  H   -2.84143280187573     -1.77923356029574      1.07846290666755
