28
Coordinates from ORCA-job ./opt_b97-3c_parallel
  N   -4.71948868660793     -1.70123542680598      0.43655697321660
  C   -3.62653838672547     -1.34378614480883      0.25846435040758
  C   -2.32315415664258     -0.83677730265832      0.06477211469138
  C   -1.34433351515355     -1.75025262469917     -0.33081202308010
  C   0.02126518991054     -1.63514455996308     -0.44101509642457
  C   0.68856131081063     -2.82203233444766     -0.83550063514106
  N   1.24114394688376     -3.79534510698148     -1.15064061609160
  C   0.87593741751076     -0.49685822316141     -0.13561614654183
  C   2.16963839711460     -0.79600283973485      0.22115818742141
  C   3.32073111219085      0.01759185153659      0.41997857194355
  N   3.57775107524399      1.23172319210639     -0.05377110746089
  C   2.64766389239976      1.96533960414921     -0.65455319693577
  C   1.27525163852722      1.86227280319994     -0.72866926476102
  C   0.37880060965780      0.86483370782362     -0.27029892872834
  C   -0.94704760448424      1.28709733247818     -0.02132213936069
  C   -1.13376788249776      2.68974436614247      0.02452021299648
  N   -1.36942265314937      3.82682070228669      0.10046396242420
  C   -2.15226413172189      0.55484563547673      0.24786052731208
  N   -3.22260600315349      1.25911925711547      0.65044641838511
  H   -3.19205151706181      2.26149183217050      0.72057084337009
  H   -4.11243565200790      0.80555334061646      0.76956790747405
  H   0.80744956534791      2.72810418211630     -1.17667542974600
  H   3.05259987677453      2.86273668910443     -1.11276511381730
  N   4.33920803541954     -0.54073115251870      1.10555169857786
  H   4.30920073223389     -1.49086994976681      1.42379381587412
  H   5.21393341286858     -0.04749377448273      1.13296809543942
  H   2.35484077663138     -1.84883355409785      0.38960159394251
  H   -1.72782954391606     -2.73877551389052     -0.54570058728440
