25
Coordinates from ORCA-job ./opt_b97-3c_parallel
  N   0.95281034750617      3.34710799609085     -1.30079651200625
  C   0.99478283311632      2.25825712067598     -0.89864853866825
  C   1.10592641558448      0.89934438087073     -0.51253599981020
  C   2.31962182504375      0.27991555497692     -0.96137400717704
  N   2.88408135090024     -0.82994782637170     -0.61185218868265
  C   2.30946018710847     -1.61878356070016      0.36493757198060
  N   1.05248383222034     -1.88147370980701      0.58282613491509
  C   -0.02930218068620     -1.20015251141273      0.14608695710465
  C   -1.15149171753958     -1.93845087727607     -0.15914087852737
  C   -2.46507065951408     -1.49067309709212     -0.42302462348981
  N   -3.06302128881106     -0.36902035448580     -0.00681761100974
  C   -2.44159816419180      0.64218465329965      0.56211763345696
  C   -1.09124851623529      1.00409952125247      0.60700585416353
  C   -0.81748708676440      2.23634257105275      1.24951579329812
  N   -0.62141867407784      3.21298706173025      1.84775371563279
  C   0.00836338953768      0.26272817906821      0.06911420188282
  H   -3.11378549108864      1.36754430268933      1.00975894050059
  N   -3.29678826244257     -2.34113863707926     -1.06186699260537
  H   -2.95750670716310     -3.16164226493588     -1.52620077521051
  H   -4.24520747338157     -2.04861141445302     -1.21493608938960
  H   -0.98212370988326     -3.00723911452380     -0.20291260483330
  N   3.22549067251125     -2.25041363226344      1.12095441181756
  H   4.19494891649679     -2.17407833127068      0.87810310987246
  H   2.92922458926447     -2.92369848429696      1.80246694396666
  H   2.88055559678950      0.86582737296134     -1.68423615398159
