19
Coordinates from ORCA-job ./opt_b97-3c_parallel
  N   -3.19466336950540     -1.30608325846232     -0.75862806331661
  C   -2.18388645257963     -0.59967521229474     -0.20174217400783
  N   -1.00208206501740     -1.18897033334995     -0.20396752255397
  C   0.12309249134351     -0.60849255211463      0.18583099670396
  N   1.04150208881209     -1.26461014443879      0.86530501520511
  C   2.33731122455758     -0.96524397421304      0.90493423942754
  N   3.09818177346224     -0.34741426168459      0.02115412270315
  C   2.55595860315917      0.39815692630305     -0.95669164765741
  N   1.40982982017670      1.02327803548552     -1.00083059083133
  C   0.38598874462196      0.81278132609961     -0.15473240583534
  N   -0.35642906558185      1.78586258819672      0.28585909855474
  C   -1.61956534350661      1.62922268144162      0.72591033207367
  C   -2.51137469417098      0.63288910157939      0.44699763070096
  H   -3.54640856827408      0.79232165757393      0.72018180712026
  H   -1.98822958394824      2.47448294715195      1.29707761270101
  H   3.21016517642952      0.57859869807709     -1.80392148976625
  H   2.86562867361568     -1.39578967437218      1.74996040494313
  H   -4.06305915986890     -0.86061324311247     -0.98557008730671
  H   -2.96669565392492     -2.16533724136610     -1.22651727015787
