26
Coordinates from ORCA-job ./opt_b97-3c_parallel
  N   4.52150794819796      0.56569328362688      0.41327530521845
  C   3.43610239781210      0.23837709481186      0.14968903474778
  C   2.09298362543611     -0.09089985342870     -0.13481392538976
  C   1.85399605205193     -1.35159802270754     -0.78264586454309
  C   0.72991528196393     -2.09665078453428     -0.80091164293227
  C   -0.50551781298213     -1.80608575083423     -0.12115461442574
  N   -1.25794345419787     -2.90690564095748      0.27280778667830
  H   -1.00102065102610     -3.77843432603998     -0.15688450779446
  H   -2.25542826460922     -2.77369781411698      0.29051252303717
  C   -0.93184840260640     -0.55055516884867      0.18478918310062
  C   -2.11142198214145     -0.33672044497156      1.05097979537550
  N   -3.17504449092103      0.30376610657265      0.74806223001192
  C   -3.31680126823968      1.00887269333333     -0.42268095045155
  C   -2.35183866802799      1.74521826476398     -1.03203354060353
  C   -0.96217822395815      1.74486455420704     -0.71552195751494
  C   -0.27856425790096      0.70014990416805     -0.16957578348638
  C   1.13813820603193      0.85883939073745      0.19136835191471
  N   1.48099195728202      2.02793497764138      0.77774603420926
  H   2.40988518063898      2.16020257348599      1.14328384806293
  H   0.75495488485778      2.61801424861660      1.13831805868680
  H   -0.39893896114469      2.62833798835749     -0.99283743502656
  H   -2.68107144744241      2.46039125119727     -1.77689603883625
  H   -4.34405673368688      1.11609879244982     -0.74928228909095
  H   -2.05563722368006     -0.73856992734626      2.06365286550857
  H   0.78914367195897     -3.05720951747145     -1.30036112903844
  H   2.72520242233308     -1.77796956861220     -1.26415693791802
