30
Coordinates from ORCA-job ./opt_b97-3c_parallel
  N   1.22340675139063      3.38106216340237      1.37009762133078
  C   1.39168270179433      2.30340786150724      0.97102386089180
  C   1.63659261441972      0.96450157407365      0.56951719560881
  C   2.89059654395321      0.44098650210830      1.01687659123273
  C   3.53282839527702     -0.67881357630832      0.61772859155290
  C   3.06061745262304     -1.53163740398100     -0.43972487026356
  N   1.82575763285839     -1.72223783251477     -0.78867716031237
  C   0.70140448905994     -1.17661480635790     -0.25235401062268
  C   -0.34437874500346     -2.02083476173951     -0.00706103523010
  C   -1.67302906867246     -1.72563402547026      0.38110828361235
  C   -2.34758786660672     -0.50597177146601      0.18781121098831
  C   -3.69662609451927     -0.46756412846298      0.58200438703698
  N   -4.81550866264297     -0.46589865814845      0.90850192544779
  C   -1.84973654396631      0.64250138548048     -0.51112548054428
  C   -0.49153156882019      0.98169067417011     -0.65887552556284
  C   -0.21943050681035      2.17919840055032     -1.34785882130351
  N   -0.06446533291646      3.15048325819573     -1.97125305683321
  C   0.62188138439184      0.27916624370285     -0.08744183192834
  N   -2.77147161528998      1.49858407521372     -0.99691508500267
  H   -2.49322093232205      2.40911393399863     -1.32068659856014
  H   -3.74881888879633      1.35003057135006     -0.82087510877409
  N   -2.37331818085261     -2.76934873759043      0.88645677204994
  H   -1.88511399117602     -3.58626575635374      1.20041329887672
  H   -3.31849372105434     -2.64963111742857      1.20636861390135
  H   -0.10936100169540     -3.07196437881995     -0.11852227834070
  N   4.01055201703108     -2.25032411420883     -1.11099918599456
  H   4.94022753036088     -1.87421834359605     -1.16368352469272
  H   3.68837925084711     -2.72490031628907     -1.93790495079374
  H   4.51808806151208     -0.87826209965234      1.01841665511365
  H   3.40759266792580      1.06764952303558      1.73186720131625
