27
Coordinates from ORCA-job ./opt_b97-3c_parallel
  N   -2.47612629545806     -3.51757463752877     -0.90546435634078
  C   -1.86290268835240     -2.58584061447540     -0.57134106458221
  C   -1.17365269187385     -1.42360626212795     -0.17035088717256
  C   0.11926709412844     -1.60369344747118      0.42528497055567
  C   1.12762694160389     -0.71537459315337      0.46989278656907
  C   2.37972797155172     -0.99894265600224      1.21002332208007
  N   3.56112701129684     -0.96899841062898      0.72964239175200
  C   3.87905802504217     -0.54126459449661     -0.53054446650028
  C   3.29626035730568      0.48765130565612     -1.20069608270009
  C   2.09834955387219      1.15833383378482     -0.83000800761210
  C   1.09461847880385      0.63663873504357     -0.06934643560558
  C   -0.04852257447891      1.47385088033790      0.31036122754605
  C   -1.36804625120129      1.05725867906887      0.21234088287669
  C   -2.34482365000412      2.01446738834944      0.55322047976074
  N   -3.11863343455507      2.83815264116507      0.83408117272934
  C   -1.85666019447267     -0.21862083596860     -0.28713791751097
  N   -3.09885748201098     -0.19626490131096     -0.83490410738429
  H   -3.58399874522141     -1.06583339078112     -0.97851137943795
  H   -3.67353832662287      0.62118738428584     -0.73675924761005
  N   0.25172925601146      2.72458753871788      0.71542968612697
  H   1.20472973845162      2.94715559113188      0.93401902362803
  H   -0.46252661272865      3.34629596648676      1.05753348023694
  H   1.94426638573534      2.14495861304275     -1.25161579830691
  H   3.82672905989579      0.87610758989946     -2.06141573458671
  H   4.79135919560685     -0.97341509999933     -0.92296603787576
  H   2.29037836812473     -1.22363714313991      2.27205202364758
  H   0.30426117344931     -2.58505217498456      0.84762478071631
