23
Coordinates from ORCA-job ./opt_b97-3c_parallel
  N   -2.56093825948066     -2.78993283727050     -0.62257683363390
  C   -2.10976114773903     -1.74436521772687     -0.39387090488733
  C   -1.60527525289595     -0.44119538855260     -0.15044039233019
  C   -2.39141194131837      0.63881782756072     -0.62945192276485
  C   -2.30006883648823      1.96644108954488     -0.32267431364768
  C   -1.42563192874477      2.48361805285341      0.66745191987231
  N   -0.29767757909665      2.00250856005452      1.07487719713777
  C   0.34687217885008      0.92406181660011      0.51849220936580
  C   1.63793657581447      1.07842987532463      0.09959202939769
  C   2.57750168686557      0.07541124885511     -0.26732237224259
  C   2.49220913783981     -1.27076033918778      0.07869323591928
  C   1.45832879844000     -1.84833532664678      0.81561951060382
  N   0.21599232981749     -1.46540120911106      0.96339577915484
  C   -0.34484245435474     -0.35618087307908      0.45437743238896
  H   1.69445504036525     -2.78249144725379      1.31876076409457
  H   3.35901825114898     -1.89249882710568     -0.10855564617093
  N   3.69188706041557      0.50944947973769     -0.91867923736368
  H   4.49095393464483     -0.09412133044446     -0.98458236883778
  H   3.88311928931989      1.49293537245235     -0.96973278617745
  H   1.98579114648472      2.10507424617368      0.07090558046442
  H   -1.75813634752778      3.37756039641374      1.19196017234883
  H   -3.06967707318588      2.62768542594390     -0.69714608922026
  H   -3.22440920037412      0.34394783496468     -1.25519365517062
