21
Coordinates from ORCA-job ./opt_b97-3c_parallel
  N   -3.24709191129984     -1.26624544622144      0.81508345616279
  C   -2.19499301473579     -0.61074569394358      0.25282267639753
  N   -1.01146466312971     -1.12139418124160      0.46690083998718
  C   0.13920202000629     -0.59097291560060      0.01978273560439
  N   0.97615022338180     -1.34912032607494     -0.63351673601543
  C   2.27725649516301     -1.12304426398028     -0.86571021871488
  C   3.14703971904851     -0.34239413931932     -0.14941562673919
  C   2.74420478781558      0.54642468926136      0.87240531150765
  N   1.57022389573540      1.07271120073238      1.06061298560443
  C   0.46217365813796      0.82336709977648      0.31014687613612
  C   -0.35914830864498      1.81992077087929     -0.13862610871891
  C   -1.66498403721983      1.63918364110570     -0.64853916659890
  C   -2.49837096652962      0.57053784027893     -0.51112761051970
  H   -3.51222176495575      0.66900569089667     -0.87873101706848
  H   -2.09170147825014      2.50503769686037     -1.14222364280674
  H   0.01821646850469      2.83303524086523     -0.07787409478268
  H   3.50125186592267      0.86169470845867      1.58705524019418
  H   4.20761946309696     -0.45901956823317     -0.32983928018129
  H   2.68247957413977     -1.72432470745120     -1.67387222804311
  H   -3.08486266048060     -2.19911710397420      1.14924819954036
  H   -4.18367762810620     -1.02854694337457      0.55016455975485
