26
Coordinates from ORCA-job ./opt_b97-3c_parallel
  N   3.74550320238888      0.19297408151879      1.09648873422268
  C   2.56953855319019      0.44853439704870      0.44564677146459
  N   2.29576347499377     -0.47788690432461     -0.53432910196268
  C   1.09063902607889     -0.88795584193068     -0.77720029866775
  N   0.88288817908516     -1.67731964843800     -1.85965147185287
  H   0.04120561604291     -2.22679201701155     -1.88907909415558
  H   1.69380064716467     -2.04482458177345     -2.32832284726184
  C   -0.10881958898918     -0.50314982115221     -0.00206976015128
  C   -0.99187489439456     -1.41430620569480      0.49338925219445
  N   -2.13922310632767     -1.13222815163184      1.19909153500529
  C   -2.84138442917183     -0.05647718076654      1.01617216969372
  N   -2.76452671568541      0.93863645367792      0.10086650574335
  C   -1.64071054248484      1.37757477322441     -0.39053304354371
  N   -1.69838796413099      2.32661405243236     -1.34773248442975
  H   -2.59656315422946      2.57610027671285     -1.72568814827719
  H   -0.87152354322312      2.56886488834909     -1.85944821357095
  C   -0.30489455351293      0.94100948898593      0.04510890326006
  C   0.68416209352502      1.82563131787036      0.32873996552069
  N   1.94690069855148      1.55493831474642      0.75221158647129
  H   0.44584364072188      2.88501214517854      0.30459971220784
  H   -3.71905317063397      0.02180668001816      1.65294512222252
  N   -0.78836039230497     -2.79138673189249      0.34381657497161
  H   -1.39801452761214     -3.29766607691762      0.96787124423543
  H   0.16911831983720     -3.08775302255882      0.45913742354519
  H   4.39533005639055     -0.40123232659546      0.61303331764636
  H   4.13933110163029      0.97618686062443      1.58889155036904
