30
Coordinates from ORCA-job ./opt_b97-3c_parallel
  N   -4.25545844453410     -0.77271576494853     -1.18116736856811
  C   -3.22506684792496     -0.48816348612990     -0.71538381435799
  C   -1.97286140447744     -0.18375527496877     -0.15660216560824
  C   -0.94184905534968     -1.09088815859020     -0.33703515308368
  N   -1.13554227007943     -2.24294210313955     -1.00756249874247
  H   -0.33406896484451     -2.78595456473292     -1.26942426748618
  H   -2.00443834934425     -2.42687065875770     -1.48221687034232
  C   0.39291281690173     -0.87385914213311      0.22645582217726
  C   1.02380485869789     -1.87752052513831      0.89234745761153
  C   2.37531469359727     -1.88459565787465      1.33136915279538
  C   3.40126811117553     -1.18087245258121      0.77233532419266
  C   3.36208255091604     -0.27472687534131     -0.31837131125572
  C   2.26858676183292      0.40960063152990     -0.77145242150321
  N   2.28669278605007      1.09454047512104     -1.95961254835838
  H   3.17838266800447      1.21022857308580     -2.41246504174822
  H   1.68877353139304      1.90551859992680     -2.00827556863060
  C   0.98349260788780      0.43479326808124     -0.04388216350566
  C   0.37378770019270      1.60450367846641      0.28240605568665
  N   -0.84123282307856      1.76581525474577      0.89077769284288
  C   -1.86999844387259      0.99734741432163      0.70323778942712
  N   -3.01021381759225      1.33181877966789      1.37479478688477
  H   -3.04611655114690      2.26780304462886      1.73901370911757
  H   -3.88433133591497      0.92205187093505      1.09846990150585
  N   1.00336622579924      2.83433514803267      0.01660155934737
  H   0.53249427798092      3.57253102573385      0.51729819492360
  H   1.98867121428883      2.83066768280483      0.24159259169058
  H   4.29732311172781     -0.12882929980718     -0.85102673796455
  H   4.39518914921218     -1.41235960301151      1.14099715477710
  H   2.63089370471374     -2.61187116159365      2.09209209275850
  H   0.44408449048767     -2.76856711953334      1.11245096541659
