35
Coordinates from ORCA-job ./opt_b97-3c_parallel
  N   -5.02209480372258     -0.48559841332552      1.60881762195206
  C   -4.06680933132357     -0.24381655136757      0.98595559810380
  C   -2.89550734620226      0.00720811656898      0.24726707324741
  C   -1.69745951409801     -0.44974385065481      0.78268259684352
  N   -1.66561461874352     -1.02647677201563      2.00324844790291
  H   -2.52310976797552     -1.26876988368235      2.47326749430719
  H   -0.85141637131098     -1.56428864808218      2.24288771216759
  C   -0.41784629208937     -0.32057299014522      0.08404729663727
  C   0.38933527951300     -1.39799976986893     -0.11118176525475
  N   -0.05757556570881     -2.68499452593861      0.18513001195094
  H   -1.01927855587681     -2.86374186871068     -0.05767257484083
  H   0.54304411084603     -3.42363465999360     -0.14397476487165
  C   1.76007843967603     -1.30266022177170     -0.57960081727414
  C   2.27805150989121     -2.40886941830815     -1.27440094889810
  N   2.73468378600813     -3.32683488254626     -1.83086433172545
  C   2.66833575802951     -0.30708138596384     -0.21622797178884
  N   3.98029628302451     -0.48864490797270     -0.47858795255969
  H   4.65512042010069      0.21982895268845     -0.25803894586596
  H   4.31697180931194     -1.36522816777424     -0.83521207965668
  C   2.33080409083856      0.93011298866326      0.45469853745825
  C   3.37430181157464      1.60621563490599      1.11218367198888
  N   4.22403372799945      2.20006243571276      1.64560725207066
  C   1.13212745747877      1.62912059722158      0.27762193097792
  N   1.06991867962812      2.93432733480766      0.61620543747050
  H   0.16983673593474      3.35463521000535      0.75425346585420
  H   1.86453267205135      3.39795641807953      1.02549261958931
  C   -0.05441446118414      1.04894520357060     -0.30771493359283
  C   -0.83783973729058      1.79813710213829     -1.14135554835792
  C   -2.10734112982730      1.46560441173074     -1.64289981118068
  C   -3.04970247921784      0.66328046027822     -1.04027589380338
  N   -4.27202324468081      0.50294326198166     -1.63993253395712
  H   -5.03802438704096      0.16577524708901     -1.08219158140672
  H   -4.53510390632930      1.17283262673615     -2.34074936332809
  H   -2.42424007694779      1.98711911548594     -2.53890193735929
  H   -0.42560426723061      2.73937844835507     -1.49098364820111
