30
Coordinates from ORCA-job ./opt_b97-3c_parallel
  N   -4.15042498353300     -2.46611291412630      0.76393434802358
  C   -3.26237262348958     -1.78016269371038      0.45457433273506
  C   -2.12585733691708     -1.01597969653933      0.11060666058440
  C   -2.35587149978331      0.23189207951875     -0.52608832238229
  C   -1.52616793900580      1.30764216715180     -0.68192028846096
  C   -2.03750455590442      2.43560172706637     -1.36632338970348
  N   -2.41275216368039      3.39667286786976     -1.90390147085229
  C   -0.21503467343828      1.46185817248009     -0.05495011793183
  N   0.13972609701670      2.75736933998702      0.31366701520497
  H   1.12366674649169      2.96099637972090      0.24143350442491
  H   -0.41091652664233      3.48240553272034     -0.11856955242298
  C   0.57351786653831      0.40753773517879      0.25956747183486
  C   1.80221567821334      0.57740526112123      1.07261189549890
  N   2.99920925072436      0.31696419953869      0.64726810454634
  C   3.19905329766173     -0.27601679903929     -0.57440849055153
  N   2.56554756455108     -1.28587086852445     -1.12299909668250
  C   1.36001574263196     -1.71903698249309     -0.70238283151479
  C   0.36486530773173     -0.99573546914626     -0.10461956505636
  C   -0.87776922337259     -1.63400012969298      0.28090362822385
  N   -0.81602017688493     -2.89274918002818      0.74524174190461
  H   0.07157071637105     -3.29832958341477      0.97320969068535
  H   -1.64965031570777     -3.39948416923866      0.99506978493864
  H   1.15071232996662     -2.75004415767870     -0.97223265510889
  N   4.29740623058821      0.19190301997795     -1.22653684789012
  H   4.65120378913138     -0.38485870437254     -1.96958199467896
  H   4.96915003196033      0.70069961063315     -0.68079012929989
  N   1.63134368644869      0.98343144846387      2.34920300998783
  H   0.78114990304591      1.46321659602101      2.58588406443921
  H   2.45234081950658      1.20008451357499      2.88940242140777
  H   -3.35988166519860      0.35869266657261     -0.91094488460011
