28
Coordinates from ORCA-job ./opt_b97-3c_parallel
  N   -1.04262102762568     -3.49045681586618     -1.00550767107251
  C   -1.02014645458521     -2.36448947747997     -0.70881444404959
  C   -1.09929681432262     -0.99161016931039     -0.39771638231350
  C   -2.39925778333119     -0.40682827974841     -0.44298230082686
  N   -2.82949181448002      0.71582432357498      0.11875212479083
  C   -2.07445478634858      1.70750146220180      0.58348900312254
  C   -0.70427028165695      1.95676410938313      0.40012445213498
  C   0.28417659092538      1.08535472745667     -0.02652206952852
  N   1.40789697289958      1.61950341684501     -0.50645512581637
  C   2.62396062112976      1.09848129832957     -0.60635070409957
  C   3.14554401496296     -0.02141391810004      0.05320513751237
  C   2.35129742087901     -0.98293039315451      0.66166763298504
  N   1.04071237338422     -1.18837038222939      0.48680061727793
  C   0.10233083425221     -0.38308204254391      0.04557797845547
  N   2.92229957739157     -1.89952454578137      1.50113205636677
  H   2.40864877581999     -2.75634474924694      1.61441284952475
  H   3.92276907644259     -1.98209559110309      1.51034142560895
  H   4.22067703944708     -0.15267158451284      0.07213226598166
  N   3.45603732624117      1.80575878696120     -1.43202890316967
  H   4.44367915454252      1.63470796577060     -1.38618967783832
  H   3.17591206538403      2.74993251032604     -1.63005354763362
  H   -0.37478227500913      2.98062703823971      0.52807306133401
  N   -2.79067096417383      2.65026242233229      1.26452295597924
  H   -3.78561786760670      2.63976297311205      1.12539578506662
  H   -2.36934435258660      3.53916701675845      1.46034353299240
  N   -3.37896412948115     -1.10933054300344     -1.06777030706735
  H   -3.21987943634838     -2.06647963761959     -1.33031148972569
  H   -4.32143225035220     -0.83454707679032     -0.85731811009444
