26
Coordinates from ORCA-job ./opt_b97-3c_parallel
  N   4.51819339117956      0.05578092544235     -1.20206724706800
  C   3.46289494162943     -0.04603757175188     -0.72453175610861
  C   2.19864065710916     -0.19382430871026     -0.10884848574227
  C   2.13368743504050     -1.08034645857103      1.06792063419111
  N   1.13862281102876     -1.75763687620835      1.49029515606928
  C   -0.06181832992184     -1.81706679689176      0.79593641441838
  C   -0.73091951921840     -0.80639599928719      0.20534848546439
  C   -2.00023883311044     -1.09587989314411     -0.49020061160973
  N   -2.05950257988403     -2.31046912119842     -1.12349017030944
  H   -1.18462186604968     -2.72069649146356     -1.39935973802156
  H   -2.81251141645857     -2.45961770663464     -1.77363770311372
  C   -3.09946843986802     -0.28705125732906     -0.44480351585884
  C   -3.22075638925518      0.96376082637829      0.20478614478100
  C   -2.25162309884022      1.83986604302699      0.57546582924881
  C   -0.85263115988367      1.72349715110041      0.30439774024627
  N   -0.14239364844842      2.91048350122348      0.25642717490890
  H   -0.65559611228362      3.74678705981830      0.47036137458982
  H   0.78733100286580      2.90960887441877      0.63741516425030
  C   -0.17037547211546      0.54911569374542      0.05546038164478
  C   1.16695914162702      0.62376611233517     -0.46098079054841
  H   1.37465676412681      1.41688937181286     -1.17642525999039
  H   -2.57437241051938      2.77152821412434      1.02515601361913
  H   -4.24071211775988      1.28888784510472      0.37890206712760
  H   -4.00375641948191     -0.66700876538601     -0.90814933512821
  H   -0.52320125730364     -2.79556775300028      0.84638221384276
  H   3.05197481509511     -1.14453709605460      1.64926476119704
