25
Coordinates from ORCA-job ./opt_b97-3c_parallel
  N   -4.91901031846075     -0.25017823020162      0.65780038949909
  C   -3.76675075254990     -0.19817821208053      0.50512060198633
  C   -2.38102073401003     -0.06727894523591      0.27175643107601
  C   -1.55542021144920     -1.12064435733051      0.60316776487358
  C   -0.18177823088294     -1.29770537914843      0.37216177750789
  C   0.34417903757903     -2.60092363210652      0.55483307595245
  N   0.76733649998669     -3.67118821116714      0.71014348582217
  C   0.72515299000695     -0.29469205944287     -0.02348689845208
  N   1.90083176255749     -0.61835253471244     -0.52860073618505
  C   3.04989938345641      0.03135771725135     -0.44400505389739
  C   3.35598878246072      1.03718291766370      0.51282851176061
  C   2.40218536233236      1.79102990134808      1.13859431284435
  N   1.11088639703782      1.93393381897471      0.82509780492377
  C   0.34507946746461      1.12516569392923      0.14157664051073
  N   -0.74532739774320      1.61792482467418     -0.44901693713100
  C   -1.94696915257743      1.10861489814387     -0.46683613439462
  N   -2.86776509714330      1.74308116305964     -1.22020688601893
  H   -2.63329440568368      2.64732744933746     -1.58742107347747
  H   -3.83630937556395      1.48190873614548     -1.17814134359635
  H   2.72757925305438      2.43781865555162      1.94684698295708
  H   4.39385742457871      1.20790136014863      0.76709281000092
  N   4.01771091494392     -0.38980722385848     -1.28766279405396
  H   4.95211659693000     -0.03566196279498     -1.21085439836427
  H   3.87853062454698     -1.25673010667080     -1.77586610080083
  H   -2.05512338246986     -1.97430875548455      1.04086522925493
