32
Coordinates from ORCA-job ./opt_b97-3c_parallel
  N   -0.39283090305765     -4.37867672571299     -0.60659239849131
  C   -0.66120345410467     -3.26042666181415     -0.44846624366132
  C   -1.02397557334029     -1.89932187616488     -0.26882483930865
  C   -2.34143047601947     -1.56666086600553     -0.58318955561910
  C   -3.07474598268197     -0.42856625443487     -0.31246281460128
  C   -4.44138043706776     -0.44522415339452     -0.67851533488220
  N   -5.57232219913045     -0.40923782869236     -0.94480046396436
  C   -2.63128742363114      0.71786602811339      0.42836063536709
  N   -3.57735853506022      1.54228951207915      0.90320517010695
  H   -3.33169020516408      2.41154578960092      1.34543692963585
  H   -4.54972798946796      1.36878082403193      0.71667142987176
  C   -1.27662863339512      1.05381695115678      0.64167956553980
  C   -1.06001907596352      2.22816583533155      1.39338447035916
  N   -0.96348311794459      3.17215547828872      2.06691144940610
  C   -0.10611146513799      0.40227226453376      0.12508475674379
  C   0.01513871726768     -1.04957253969491      0.18116164053888
  N   1.09064111069839     -1.64072260661423      0.66103407824883
  C   2.35300667025290     -1.27775747099733      0.72242798469159
  C   2.98116420793138     -0.27618464008934     -0.08090165828584
  C   4.37193799924914     -0.36085536961329     -0.25786300672592
  N   5.52610676952156     -0.41947480335491     -0.40325299077879
  C   2.31876170557765      0.84077194169826     -0.61598638103328
  C   0.93958256131969      1.19432783270837     -0.35743777709717
  C   0.60320122054834      2.51026382521815     -0.75374004011714
  N   0.40392297220537      3.57810272590483     -1.16864674861614
  N   3.03042687462992      1.69966956353154     -1.36086494444853
  H   4.01838045557358      1.56677284628644     -1.49189337260719
  H   2.62986342370599      2.56616581568115     -1.67689166375503
  N   3.11666697379178     -1.99716378664751      1.56388342062073
  H   4.11056230313763     -1.86249038208781      1.61267990911927
  H   2.72878663748069     -2.84103211093584      1.94665943565930
  H   -2.90232680042477     -2.36153697541009     -1.05546468251395
