25
Coordinates from ORCA-job ./opt_b97-3c_parallel
  N   -3.89804867066836     -2.08399155179647      0.53714878217879
  C   -2.95096976404798     -1.44606769828332      0.30568840012767
  C   -1.83845064265908     -0.62541272082695      0.03722039628365
  C   -0.64580951610235     -1.25520752960197     -0.43269156094560
  C   0.62457641525242     -0.77822803269620     -0.39749020456086
  C   1.72214718544048     -1.56820307658769     -0.92837693499276
  C   2.96998186114412     -1.62426364574963     -0.42209795572481
  C   3.40664379889454     -1.00368111497177      0.81129438338252
  N   3.00511564191381      0.07807611871883      1.37859196831939
  C   2.05519091220654      0.90035062626452      0.80053546450936
  C   0.97226905690678      0.56731587062661      0.07023607936880
  C   0.08316591121668      1.64516123682843     -0.43533717906184
  N   -1.19873478806607      1.71880689921567     -0.28815989751142
  C   -2.00734774260242      0.75175604170298      0.21278782736849
  N   -3.11606030378827      1.24300662474623      0.82661243627560
  H   -3.34616527354738      2.19997105117493      0.62761212714019
  H   -3.88529031759395      0.62140880121667      1.01063019675581
  N   0.70316816976555      2.65600234973854     -1.08534378442895
  H   1.65838661065198      2.54774489426664     -1.36877844036521
  H   0.13654326192633      3.33433850398255     -1.56517312238614
  H   2.19236347440064      1.94439650131813      1.06169307740699
  H   4.20068966530850     -1.53338886035871      1.33703112354402
  H   3.67443851049163     -2.31057087856589     -0.87726257087291
  H   1.49773321021178     -2.20482923938446     -1.77927525374143
  H   -0.77648122145280     -2.26610114827728     -0.80010913086979
