27
Coordinates from ORCA-job ./opt_b97-3c_parallel
  N   -0.03313368103678     -3.59704265703503      1.12924834953586
  C   -0.31470842452337     -2.50371415745299      0.83631258825695
  C   -0.71808298131566     -1.20663410815794      0.47302235606694
  C   0.33543798848793     -0.25921116872090      0.21867097411108
  C   0.12397983747734      1.17623291791433      0.43050092759821
  N   1.08480425451102      1.89500879182756      1.08550247968052
  C   2.37308060100806      1.82406382913849      0.95521538767327
  N   3.16786224555904      1.14374570010856      0.11677763505567
  C   2.77045394715551     -0.00434243126004     -0.41323056124689
  C   1.56308356830804     -0.72539079409197     -0.19095361140812
  H   1.60218090544931     -1.77483809838078     -0.45492512663649
  N   3.67944833730771     -0.59172060285247     -1.23675506941838
  H   3.57456550868234     -1.55422139273493     -1.49870040264789
  H   4.61163452421368     -0.21720465269831     -1.21366808327396
  H   2.92193604952265      2.48344172618570      1.62406848168330
  C   -1.00625008996241      1.86033294134900      0.08234191040242
  C   -2.25304115165231      1.38359996173503     -0.39370618779937
  C   -2.73087089403475      0.08986199856855     -0.32222060561667
  C   -2.09761279714708     -1.04735822274817      0.20545877454396
  N   -2.90860905444649     -2.11865877314506      0.44249337380924
  H   -3.84043874659339     -2.10859573421383      0.07310707945135
  H   -2.50034503335349     -3.02655178633268      0.58566971410805
  H   -3.75551997134880     -0.05780284170830     -0.64459728209665
  N   -3.07809265237843      2.34004428929443     -0.93287273577759
  H   -2.85073656987101      3.30198931429455     -0.75775786916589
  H   -4.06356569812519      2.14905273291433     -0.96990304434727
  H   -0.93197429188938      2.93088454789684      0.23384936325495
