25
Coordinates from ORCA-job ./opt_b97-3c_parallel
  N   -1.05993136692058     -3.14650598853575     -0.89573976567113
  C   -1.02931291295115     -2.01705600654864     -0.61535200400520
  C   -1.11422924968524     -0.64073634619391     -0.30748290078982
  C   0.11981816052163     -0.02371200642884      0.02088536586327
  N   1.08646796300368     -0.84036515511930      0.41157022417243
  C   2.40574639453517     -0.73070318515255      0.36074338056027
  C   3.14461339988844      0.18983414226193     -0.40924913070475
  C   2.59133836000754      1.33939486634534     -0.92465595811382
  N   1.42929347271000      1.91516762160121     -0.66245505047735
  C   0.34161814020509      1.43033254752888     -0.06325715491211
  C   -0.57014242517659      2.34466053027996      0.47109163385110
  C   -1.92751229894736      2.17740717336588      0.68239016448212
  C   -2.76846523051325      1.13248768272065      0.35685190143385
  C   -2.43187874806106     -0.11242492062207     -0.19060205215391
  N   -3.45945913042431     -0.90981327699421     -0.59032096998670
  H   -3.28772974656962     -1.88144592465631     -0.78663204782122
  H   -4.39004410276040     -0.67652972325104     -0.29753325646000
  H   -3.82764722897479      1.30971180658229      0.49821765725369
  H   -2.43018433992788      3.04619538698490      1.09216155523564
  H   -0.16827101050012      3.33851785943298      0.62227292736301
  H   3.20934943421172      1.91164827496634     -1.61205198713961
  H   4.19057719316634     -0.00921805958300     -0.60259801517373
  N   3.06926283584535     -1.65642295130025      1.10015454321956
  H   4.06337146686963     -1.74960040861136      1.00924009417771
  H   2.55174843106634     -2.46362666026781      1.39987347039594
