25
Coordinates from ORCA-job ./opt_b97-3c_parallel
  N   4.48747446008549      0.50118393042467      0.70208395107345
  C   3.35040034850791      0.46242053048837      0.44778158630678
  C   1.98394885925426      0.39968758980728      0.13346729659861
  C   1.39001203598770      1.57590576058366     -0.44206042796779
  N   0.12229636790193      1.93058050005388     -0.40707862780279
  C   -0.92892493282335      1.18316056189322     -0.08757938992119
  C   -1.99141514004743      1.76186959893102      0.60936213560212
  C   -3.24469135112556      1.21949457838308      0.90353193674127
  N   -3.92874145453451      0.25364439900606      0.31345086950585
  C   -3.39092794764118     -0.41612874772061     -0.71669379618871
  N   -2.14817996532353     -0.69483437421272     -0.98013296759377
  C   -1.02709191689091     -0.24524202034918     -0.39893085957383
  C   0.00381266242149     -1.14729263305776     -0.15322460942009
  C   -0.31187397477797     -2.51775399400040     -0.29548740277979
  N   -0.48315145474356     -3.66564328181443     -0.36461441795955
  C   1.34805997128236     -0.84936518563253      0.26427352588731
  N   2.06681599720600     -1.87875924373528      0.74173122732016
  H   3.05247111802015     -1.78013373957917      0.91310628044249
  H   1.68170833171581     -2.80736722480556      0.75044379161493
  H   -4.11168979507542     -0.84697932868302     -1.40475963971918
  H   -3.79280536976278      1.72503077309307      1.69408595414348
  H   -1.76687010127267      2.72369343738286      1.05345694007716
  N   2.22008257666544      2.47508391912270     -1.00598744506930
  H   3.21572555728110      2.34759936734057     -0.99941291712395
  H   1.85117095338904      3.38226935498012     -1.22641946569405
