29
Coordinates from ORCA-job ./opt_b97-3c_parallel
  N   -4.87996165389906     -0.64719582841857      0.59113137413832
  C   -3.81253830025660     -0.33632779958259      0.24328852118588
  C   -2.49170872350116     -0.02042385711800     -0.13586121379524
  C   -2.31417881975332      1.10203862514462     -1.01482419068186
  C   -1.21718852063774      1.85781241770726     -1.23105125017036
  C   0.03820813688613      1.76302418431012     -0.52994013121232
  N   0.73884773656429      2.96617334464794     -0.37116176873646
  H   0.41801331783833      3.70379701687227     -0.97586425902820
  H   1.74197055005177      2.87675587373385     -0.41986217310436
  C   0.49742062347158      0.61969552888525      0.03824681752455
  C   1.69346682676149      0.60689900807210      0.91322782861739
  N   2.78026489351968     -0.05417674227886      0.66303335470887
  C   2.84863993395634     -0.92075467018203     -0.40136894748098
  N   1.97310885085580     -1.79859256957900     -0.81768310448849
  C   0.67251121680825     -1.78838194823583     -0.44034233417133
  C   -0.09212168216849     -0.71432869945967     -0.08895999612758
  C   -1.48978102184317     -0.89115390470729      0.28429299854440
  N   -1.79772275917684     -1.99584723264748      0.99854254025990
  H   -2.73871425862754     -2.14938844324018      1.32198766552238
  H   -1.06129676882917     -2.50277289627198      1.45155518959437
  H   0.18636661340218     -2.75490458507378     -0.52921319064716
  N   4.07044255031342     -0.91814707082941     -1.01483445567750
  H   4.27017587011137     -1.72987359686055     -1.57369002514863
  H   4.83373293039871     -0.55246293421240     -0.47354913767751
  N   1.59896526385467      1.29907584802943      2.07221089595445
  H   0.92281712412146      2.04033081603749      2.12275699840755
  H   2.43261623513522      1.39597293729864      2.62763623446257
  H   -1.32335113432977      2.69013119526660     -1.91780190723685
  H   -3.21361045132815      1.40212106489295     -1.53936625893670
