22
Coordinates from ORCA-job ./opt_b97-3c_parallel
  N   -0.76649586086672     -3.69176889219344      0.00650379447119
  C   -0.29801575586577     -2.62944513084587     -0.02197801581444
  C   0.31901797139549     -1.35527548277199     -0.08270766767705
  C   1.64378878485232     -1.31348085253824     -0.61331357430898
  C   2.56949810997860     -0.32931388599306     -0.53090611779699
  C   2.39618525240063      0.89402294369878      0.21032356324503
  N   1.27606475461386      1.51968257948619      0.44796636457583
  C   0.03638528361826      1.11231092745433      0.11498809020632
  C   -0.85360302447834      2.01141944168034     -0.45082644096881
  C   -2.21116617458358      1.80575824495624     -0.75493989758627
  N   -3.09375491719222      0.97742780904665     -0.23920039257618
  C   -2.72419028537589      0.14461361987311      0.76030951702540
  N   -1.59080377203782     -0.43395898791359      0.99011089702280
  C   -0.42259951773047     -0.25991326583934      0.33534063666844
  H   -3.52329394662080     -0.10718509170002      1.45115017848188
  H   -2.62684492237526      2.49211367361031     -1.48892493963596
  H   -0.41662583420029      2.94186735470834     -0.79172978519738
  N   3.52974632702641      1.49453920279892      0.65589493323901
  H   3.41588329990791      2.28723780443392      1.26398466927280
  H   4.36872176476940      0.95488663560012      0.76111572832292
  H   3.55175646527878     -0.51898175272535     -0.94310936319373
  H   1.96304991078563     -2.23039706302649     -1.09220400917584
