21
Coordinates from ORCA-job ./opt_b97-3c_parallel
  N   -0.73020230168240     -3.71717570949340     -0.77179039402145
  C   -0.23947065160397     -2.68403773223568     -0.56999794490214
  C   0.37233404409155     -1.42706420505111     -0.35629774511514
  C   1.76329920963246     -1.36044508958348     -0.42691673711412
  N   2.61850973458875     -0.42009221702638     -0.06200305862837
  C   2.33661510415598      0.85623084887031      0.19531824361789
  C   1.15380986503841      1.57883771841780     -0.13052249163801
  C   -0.07910512325560      1.03424261037762     -0.32604069342886
  N   -1.04879258886037      1.71567043629881     -0.99621885111396
  C   -2.31710930174232      1.74384504829536     -0.73364605485908
  N   -2.99451186094106      1.31468288989032      0.35805116802942
  C   -2.50766465584224      0.32566639813039      1.06462975515270
  N   -1.53497692091527     -0.54471129547832      0.76684569684088
  C   -0.45178972393623     -0.34153923599594      0.06957367542047
  H   -3.03184012996448      0.09514534748974      1.98722847067688
  H   -2.92850210086200      2.25439417587788     -1.47162146117542
  H   1.25248673531381      2.63990403394861     -0.32607258424600
  N   3.37156482124504      1.55932257536874      0.69578133007208
  H   4.24611438504379      1.08683375964970      0.84060387781218
  H   3.26975405742100      2.50920711184062      0.99830624738056
  H   2.24679516717509     -2.27925658959255     -0.74309717565791
