23
Coordinates from ORCA-job ./opt_b97-3c_parallel
  N   -4.46227365519918     -0.21621710376489      1.13464917065485
  C   -3.35007307775844     -0.26337350127972      0.79195635797211
  C   -2.01494308818582     -0.25303206723443      0.34483882612991
  C   -1.27219065848498     -1.41695449997960      0.41183177569537
  C   0.01884528754210     -1.67695781019061     -0.04066668523695
  C   0.99386653556400     -0.75853596846330     -0.38794830936697
  N   2.12708221998940     -1.20692890459705     -0.97456946909502
  C   3.36138202119772     -0.90293790756645     -0.70434299600490
  C   3.84715090219913     -0.00997398043689      0.26891361378804
  C   3.11643383293069      1.05112381580044      0.75133353783237
  C   1.80335856630346      1.42132648072064      0.44541962315717
  C   0.80501700300956      0.67293170710514     -0.16370611616834
  N   -0.32355225053646      1.30238774303629     -0.54995861213693
  C   -1.56043415791385      0.92891879848770     -0.37676417533189
  N   -2.51310449344046      1.71583656968524     -0.91889076124825
  H   -2.23708290747688      2.60026400976066     -1.30391635205804
  H   -3.48765833876895      1.54126213938238     -0.75466495804329
  H   1.49088489619724      2.41151886591321      0.75223458065161
  H   3.65331709787652      1.75133609293622      1.38117333068574
  H   4.89840044652272     -0.06860629118223      0.51699157112580
  H   4.09801721595287     -1.40849167647342     -1.32477961840726
  H   0.32155082291582     -2.71461981993861     -0.09272351687117
  H   -1.79913944443561     -2.27053225581357      0.82011973187000
