29
Coordinates from ORCA-job ./opt_b97-3c_parallel
  N   0.44664575723640      2.85892116452758      0.13774316004010
  C   0.77387378896594      1.49290480468530      0.24586851931286
  C   2.07864782945802      1.20002208076234      0.73498026940853
  C   2.81982442875571      0.07769319634927      0.46649592896718
  N   2.53489794770275     -0.94010150588293     -0.39664543664526
  C   1.34020802570742     -1.38099498904390     -0.63953069091366
  C   0.08378579190038     -0.89010132610623     -0.05106885200890
  C   -0.85995962221227     -1.75936341946727      0.39328158440446
  N   -2.07129362228153     -1.46527621720853      0.93944255269474
  C   -2.74048477998431     -0.39383232053834      0.61195142050013
  N   -2.57883331231587      0.46559854923300     -0.45067828453369
  C   -1.40537150333591      0.88927106215853     -0.81126166812878
  C   -0.13950090721251      0.55145283539982     -0.13647375973388
  N   -1.31957392220186      1.65027424080320     -1.93396524071693
  H   -0.50722955013244      2.23693123694777     -2.02260059921677
  H   -2.18368531514280      2.01871545240990     -2.29599902590985
  N   -3.85699507759887     -0.10439440923647      1.35389717284896
  H   -4.56135757913012      0.43379894310164      0.88066135726162
  H   -4.19204825439030     -0.86369704199591      1.92207125743776
  H   -0.62099215656472     -2.81851179012927      0.39800496159407
  N   1.23253657523895     -2.43031590120161     -1.50069098228785
  H   2.05622032615512     -2.67494188150738     -2.02474362251856
  H   0.34414555699559     -2.59361682327660     -1.93661134268408
  N   4.09946404529271     -0.03544421600222      0.98392870521280
  H   4.46508454665232     -0.97175859953449      0.94538205753498
  H   4.26365824526535      0.42789805043259      1.86048976086772
  H   2.56382308614781      1.97411877465914      1.32049321375350
  H   1.12152170517330      3.46142707077630      0.57929947139085
  H   -0.48375312804446      3.08202999458449      0.45817935746794
