29
Coordinates from ORCA-job ./opt_b97-3c_parallel
  N   -3.66958823589630     -2.14090409023994     -1.26768934533795
  C   -2.87861811820118     -1.41441347827708     -0.81080298544421
  C   -1.95607592357159     -0.51726955971809     -0.24704050690970
  C   -2.37080134177188      0.80820710224473     -0.09098040268256
  C   -1.59198258990272      1.88319248559813      0.41826719615165
  C   -0.23079325473983      2.02902528425646      0.40022768035513
  N   0.30596886542857      3.24320965107449      0.73476424838392
  H   -0.30465054167099      3.93959338426862      1.12641907334092
  H   1.24134144800648      3.24612182415943      1.10053416709480
  C   0.71978826274752      1.00104197315680     -0.00984411604514
  C   1.89124151322269      1.36794150238247     -0.59583322999907
  N   2.92413915541700      0.56960625967546     -0.99154770791464
  C   3.21450397314944     -0.53653603159840     -0.37615591458276
  N   2.78956534356987     -1.00235326816315      0.87074649132546
  C   1.53635786523960     -0.98565952215871      1.16466840998155
  C   0.45825522599362     -0.38822807472958      0.40233310042457
  C   -0.71881142103130     -1.06816629280969      0.26518745341348
  N   -0.75623251861128     -2.39941035375164      0.65009830428605
  H   -1.62418787514884     -2.88300859046854      0.49225556506339
  H   0.04162634693813     -2.95708558390361      0.40017603829305
  H   1.27098026139651     -1.45330829525584      2.11560335762507
  N   4.12984386402395     -1.37117235574476     -0.93811831045757
  H   4.61645102836414     -1.99336836774244     -0.31828244394884
  H   4.64476691712739     -1.00332758066052     -1.71896407697435
  H   2.02049118066393      2.40709282023234     -0.87727417955682
  H   -2.16860540394341      2.73195647464668      0.77013570037057
  N   -3.67187907095957      1.12383589637591     -0.36139401426052
  H   -4.25212386505095      0.43079794717309     -0.80382828056694
  H   -3.88453029398831      2.07510434047803     -0.60047498682962
