24
Coordinates from ORCA-job ./opt_b97-3c_parallel
  N   -4.34818642342597     -0.23222718018698     -0.80977692492918
  C   -3.22293669103634     -0.16908282814247     -0.50877712908943
  C   -1.87239322942184     -0.06627328801927     -0.14513711654344
  C   -1.24714423107754     -1.23786164897601      0.42888007178401
  N   0.02700373178944     -1.53885568549559      0.40580636121340
  C   1.00137704130852     -0.73129347959884     -0.01631159359590
  N   1.91998929829322     -1.19536827673295     -0.82261781466029
  C   3.13696602066033     -0.70101003271839     -1.06569389379004
  C   3.89660625020763      0.11616133411288     -0.26395153148795
  C   3.39519406046533      0.77266560569039      0.87594075056482
  N   2.15401292375142      1.04521743529053      1.16696060872146
  C   1.06058681799983      0.67185947530656      0.45923916242987
  C   0.02686548610588      1.53593586397962      0.24783220239562
  C   -1.27810252461946      1.20864847488911     -0.20809393786037
  N   -2.03913610469159      2.25246146225178     -0.61146837152437
  H   -1.60913661650818      3.13588982959159     -0.80720644416857
  H   -2.97656217907699      2.11016172250775     -0.94400291886129
  H   0.20747904896846      2.57490792768657      0.49491964307272
  H   4.11720223232222      1.14204436410529      1.60008399884274
  H   4.94982103597339      0.22091908181663     -0.48858815488807
  H   3.59111017332099     -1.09081844959747     -1.97152789962562
  N   -2.06353466938503     -2.15803322656101      0.99461396619790
  H   -1.68264487291526     -3.07455492123501      1.14648043623330
  H   -3.06011386410898     -2.07647260916453      0.90538557406898
