25
Coordinates from ORCA-job ./opt_b97-3c_parallel
  N   3.51756988790035      2.46807231102839      0.09363498668848
  C   2.45787384359164      2.00698477234359     -0.02824030155824
  C   1.15852933090266      1.45897917257599     -0.17782020487129
  C   0.14938002592007      2.38378408767336     -0.58268011507307
  C   -1.19659014488076      2.27667217530514     -0.51212877646973
  C   -1.97480007410962      1.20798200628530      0.04553361137533
  C   -1.51459305679309     -0.08935225312754      0.24589947906115
  C   -2.42084987481266     -1.02648863290189      0.77566421130396
  N   -3.22415159639223     -1.72819873519518      1.24247272002513
  C   -0.24465194567333     -0.61748972673108     -0.23151133963454
  N   -0.27950023717375     -1.77673361593829     -0.80626244270216
  C   0.64001748882427     -2.72710326903179     -1.00504531531550
  C   1.77560926333508     -2.92807347273224     -0.26938827969131
  C   2.33416973093622     -1.97620000439821      0.60368604187592
  C   2.02394164952737     -0.64965032361857      0.71553514666946
  C   1.00059485144167      0.10142372432439      0.05947799812860
  H   2.64299802479780     -0.06937512534442      1.38891624541145
  H   3.17522576582521     -2.30878468431013      1.19993376442118
  H   2.28924537634694     -3.87337621985512     -0.38413366587364
  H   0.36589711363181     -3.45219125024971     -1.76299984657055
  N   -3.26525175166755      1.50990880626599      0.31904978140467
  H   -3.56519166826611      2.46593147802915      0.33618197618300
  H   -3.86016948691343      0.83406359841112      0.76709802800255
  H   -1.76589908059732      3.13787727196178     -0.83894914245871
  H   0.52722571160222      3.33073248422746     -0.94619870273341
