28
Coordinates from ORCA-job ./opt_b97-3c_parallel
  N   -2.01744516062827     -3.29280237024312      1.56466953770359
  C   -1.17032924235696     -2.64925956266905      1.09156744311690
  C   -0.14032478931272     -1.87435739012401      0.50825493585809
  C   -0.51082430181411     -0.51979104690187      0.10562473232665
  C   -1.83945735400812     -0.33449948614743     -0.20226695864416
  C   -2.62571405267781      0.81349705712675     -0.46328730061903
  N   -3.87353962552807      0.57245728774429     -0.95777149158591
  H   -4.55450491817527      1.30975410195035     -0.93727426910502
  H   -4.24704351387796     -0.35812061621102     -0.90723229274436
  C   -2.26016746257770      2.13252249675184     -0.21969432068887
  C   -1.05208117901616      2.55080168269937      0.30308846448073
  C   0.14032621371803      1.87438700387060      0.50850563778059
  C   1.17045441423204      2.64920761158544      1.09170584533028
  N   2.01766692759548      3.29268546535924      1.56472496744614
  C   0.51074250177235      0.51988302071452      0.10559763894327
  C   1.83931034310349      0.33463671874733     -0.20259950380811
  C   2.62550978271990     -0.81331934376140     -0.46395634191062
  N   3.87323223931157     -0.57220655835601     -0.95866704795634
  H   4.24674650644556      0.35836038832109     -0.90805800679680
  H   4.55419992295153     -1.30950429501522     -0.93840947071474
  C   2.26001798285407     -2.13237952724438     -0.22047850389013
  C   1.05204119948161     -2.55073879969263      0.30249292344802
  H   1.01815475225557     -3.59608169058678      0.58474956670078
  H   3.01030870161094     -2.89551053884931     -0.38322651075657
  H   2.40371543036684      1.25657387338693     -0.26276417085143
  H   -1.01813188082015      3.59610485517236      0.58548543418500
  H   -3.01049096181391      2.89568063017327     -0.38217515775644
  H   -2.40387635431281     -1.25643046120041     -0.26244976249105
