28
Coordinates from ORCA-job ./opt_b97-3c_parallel
  N   3.96516920817212      2.69268851704461     -1.50308747489060
  C   3.35446138389641      1.82450682429658     -1.02924254557040
  C   2.59267278650927      0.77990208296285     -0.44924835910687
  C   3.22148761280938     -0.41629035114400     -0.20215926535309
  C   2.70795474360266     -1.55867660452871      0.43780348527191
  C   1.39427554960475     -1.91604041439289      0.60846285947956
  N   1.07665704607871     -3.07686732473621      1.25502408335256
  H   1.76678087200742     -3.49945157696698      1.85208929965012
  H   0.12403946753232     -3.19550446809720      1.54995104471988
  C   0.25851202678952     -1.18620497779760      0.02361336186439
  C   -0.73908534963618     -1.86582603622183     -0.59725955914276
  C   -1.96195546200832     -1.36936496250185     -1.12448663738163
  C   -2.66027010137662     -0.26523950265034     -0.73663536597974
  N   -3.82728248836816      0.10471443826538     -1.36545077694092
  H   -4.47639710091840      0.67305777254543     -0.84713305052134
  H   -4.27531742267603     -0.59681420601368     -1.92927778025827
  C   -2.25219955347181      0.57096394937755      0.39849975126937
  C   -3.30302573954791      1.22030072850442      1.10422420235339
  N   -4.19609633017190      1.73972530665027      1.63435707112001
  C   -0.98740645634001      0.79368437828974      0.82177584843151
  C   0.23857876858932      0.26680063857178      0.22795574142514
  C   1.26283642656476      1.11337327479650     -0.01901141751331
  H   1.07088297690759      2.17049306546247      0.12603108418638
  H   -0.87271562775747      1.44276056615271      1.68301526522416
  H   -2.42763309565930     -1.98982445466573     -1.88267817523810
  H   -0.57053800666073     -2.92369705629731     -0.76480142635781
  H   3.44947325246073     -2.26558536031239      0.79358059490853
  H   4.27340573686863     -0.45998013930078     -0.45603001040339
