28
Coordinates from ORCA-job ./opt_b97-3c_parallel
  N   0.11921992919941      3.05943315438972     -2.29716013275469
  C   0.51520477833205      2.25290901360843     -1.55908762015060
  C   1.02419644954030      1.23561299612897     -0.71943653171724
  C   0.09590768430994      0.25758459046203     -0.19008740443121
  C   0.52916442210331     -1.14208755066179     -0.23875882215462
  N   -0.26498021981057     -2.07079798537705     -0.81926290896228
  C   -1.54741404622880     -2.23549747061879     -0.63859548248287
  C   -2.40636923740662     -1.54038531444067      0.25616358083555
  C   -2.23965677620441     -0.24997467502534      0.68405720156352
  C   -1.14723717091938      0.63082002834746      0.27346735884817
  C   -1.39269303237110      2.00680215137040      0.49448588824437
  N   -1.67256160655128      3.09863958450080      0.77981978677502
  N   -3.15962682796594      0.29859131018739      1.52475138803243
  H   -4.03880297706043     -0.17088511612846      1.64151317261241
  H   -3.18202074846884      1.29692265880743      1.64485781856902
  H   -3.31696902546935     -2.04994854786806      0.54669983296746
  N   -2.11026621041790     -3.27939305402228     -1.32826586724837
  H   -1.51708766499022     -3.68325081567427     -2.03387487590459
  H   -3.08030296757221     -3.20388726769978     -1.57754964728104
  C   1.75948884201793     -1.54448250206875      0.21990896658852
  C   2.83855636816271     -0.73928395025195      0.66724312788288
  N   3.15714133461939      0.49596592783559      0.28966000684061
  C   2.38811281258292      1.26671986811329     -0.46449524118273
  H   2.91281504828716      2.11137082833282     -0.90006314057393
  N   3.73594363194942     -1.31259422081890      1.50325379404032
  H   3.65013948714823     -2.26930963854635      1.78742135672863
  H   4.60251305312778     -0.83229505823211      1.66638261011754
  H   1.89947317435544     -2.61849008504948      0.25107873399837
