24
Coordinates from ORCA-job ./opt_b97-3c_parallel
  N   -5.48550944598958     -0.00042977553428     -0.00061780466806
  C   -4.32322316994763     -0.00031448878714     -0.00042185861475
  C   -2.90590010318300     -0.00017833980361     -0.00018176313524
  C   -2.26260963035499     -1.03986975024094      0.68467903277469
  C   -0.92656799309410     -1.34987880536130      0.73817087156102
  C   0.20099114817847     -0.71284255921708      0.16962488751701
  N   1.26348962830378     -1.48342770996187     -0.01852066252950
  C   2.51610294570090     -1.11089217822257     -0.30739016484310
  N   3.18947323757908      0.00031243985817      0.00062491836160
  C   2.51586493844382      1.11140944319114      0.30853820732367
  N   1.26325801710568      1.48375386745472      0.01942775733373
  C   0.20092578781198      0.71300580867330     -0.16903479616117
  C   -0.92656793933540      1.34987777527644     -0.73788033975521
  C   -2.26257643066927      1.03963476043325     -0.68481652124941
  H   -2.91899674445909      1.73747680650633     -1.18893115837611
  H   -0.67680341915317      2.28864822016348     -1.21643448449983
  N   3.24503922411819      2.06620821515447      0.92293400624467
  H   2.87286938486253      2.99620109152279      0.97262100655750
  H   4.23309525668486      1.92339044706296      1.02213080681799
  N   3.24553802789200     -2.06560021694909     -0.92161496317742
  H   2.87351441552378     -2.99564855980955     -0.97134932631909
  H   4.23359037772279     -1.92263698186745     -1.02063506107885
  H   -0.67678732345939     -2.28858934727979      1.21683302872451
  H   -2.91906950348146     -1.73781710036268      1.18859655429060
