28
Coordinates from ORCA-job ./opt_b97-3c_parallel
  N   -1.84831840522891     -3.50252861715594      1.51373496721197
  C   -1.73863019601347     -2.42670155008270      1.08843495347957
  C   -1.64847878330981     -1.09928796815867      0.59803864191852
  C   -2.83237470930088     -0.36230926609250      0.64369234252723
  N   -3.17527305956991      0.80522695511359      0.14254897345699
  C   -2.30809585316530      1.66295617438791     -0.41346563926649
  C   -0.90196535908030      1.66490542975287     -0.38827558951525
  C   0.00872785186212      0.67665377789105     -0.03903370724060
  C   1.34416764844605      1.08206147689228      0.27238869324344
  C   1.51396942236370      2.44803008617584      0.56825270606594
  N   1.71511542547467      3.56898457324031      0.81758198171362
  C   2.54573672298996      0.31253689024124      0.31221952893432
  C   2.70370069652437     -1.00195094112985     -0.12727581815967
  C   1.68836657111138     -1.83727920979544     -0.56853686250658
  N   0.37898222440562     -1.74068394315166     -0.31285680225462
  C   -0.37230074951929     -0.73615031579854      0.04416245876800
  N   1.99855722339976     -2.94891972224393     -1.28966774411773
  H   2.95808414155677     -3.22066604654364     -1.39834017196251
  H   1.31162910797639     -3.68252775315095     -1.29728253742526
  H   3.71623524639786     -1.38385483061919     -0.17213623370976
  N   3.65990811051182      0.93283747887963      0.77843451497511
  H   3.66286037339381      1.92569728490503      0.93497001381656
  H   4.55267152518292      0.49200493520730      0.66403731751308
  H   -0.45862021037618      2.61699142631836     -0.65115821241750
  N   -2.91753740055380      2.71426456193685     -1.01786854329954
  H   -2.39226291704431      3.52107678615793     -1.29899254226193
  H   -3.89893661606209      2.83153050470799     -0.83776526687213
  H   -3.65526169567798     -0.87684410888911      1.13062142538108
