28
Coordinates from ORCA-job ./opt_b97-3c_parallel
  N   -3.09051141799126     -2.29446917774991      1.20780006837416
  C   -2.52280168200925     -1.38093696336801      0.75850520851557
  C   -1.90666105513798     -0.22980551216561      0.22787369020183
  C   -2.77675314774642      0.88419644219643      0.09104599583856
  N   -2.57359716118932      2.04146481535353     -0.56101999971726
  C   -1.38474777848795      2.48275711106905     -0.90405649010225
  C   -0.09775345438779      2.01509505361623     -0.66737420967926
  C   0.36627661633134      0.77950418503543     -0.21279002367610
  C   1.73839049445094      0.70180060004452      0.15716923725569
  C   2.38713077541096      1.92795686104966      0.41142408032530
  N   2.98479699181255      2.89898948642645      0.65045346502409
  C   2.58396279165957     -0.44534360510923      0.29971615848966
  N   2.38822241282381     -1.69285785801702     -0.11132836434730
  C   1.22010926375801     -2.19960047717843     -0.47883656235932
  N   1.31115596438677     -3.45349185318277     -0.98852789386130
  H   2.18915953560687     -3.93037726824321     -0.88870360451218
  H   0.48875731397474     -4.00882242060756     -1.13156660728578
  C   -0.08303802460601     -1.66962802786283     -0.35767102601026
  C   -0.52000031030346     -0.38025219583327     -0.13447254005168
  H   -0.86533475267897     -2.40915964311668     -0.46108070421827
  N   3.79702251374588     -0.25974922364218      0.86291160406561
  H   4.44813824614196     -1.02101588546337      0.80405901563344
  H   4.14047723146174      0.65661152737629      1.08882409628101
  H   0.67047644388259      2.73400626501724     -0.91791344703982
  H   -1.42280853035090      3.43551724422056     -1.42623971423033
  N   -4.01816739062909      0.80268059513902      0.61634697786396
  H   -4.37148367494943     -0.04134969002903      1.02970164591564
  H   -4.65793069168263      1.53776693052009      0.37674175000556
