22
Coordinates from ORCA-job ./opt_b97-3c_parallel
  N   -0.80614083688247     -3.51705147720726      1.08313332060480
  C   -0.27690653256700     -2.54023118393956      0.74395670603438
  C   0.38634366699106     -1.34938287956071      0.36543032097516
  C   1.76690745066772     -1.33920926984869      0.41544392926886
  N   2.66274432557801     -0.44525693639738     -0.00507205680089
  C   2.42093528129978      0.83065243657198     -0.24026660224238
  C   1.23616539012569      1.57968762640992      0.06417590949235
  C   -0.03545640062829      1.10572987846718      0.15517897534556
  C   -1.08700128476717      1.90683219957318      0.73391832791556
  C   -2.42094902543661      1.86334498487808      0.47297979681733
  N   -3.09188646421812      1.21456099473527     -0.51679465043305
  C   -2.56330222219079      0.20205385438076     -1.14018310981887
  N   -1.52325233516893     -0.57484653290815     -0.79075780100073
  C   -0.43762716520369     -0.27544773336814     -0.15322175287599
  H   -3.09820342303134     -0.15617373534785     -2.01427092178994
  H   -3.05100160754052      2.52015975100338      1.06338804975678
  H   -0.76476336497256      2.61135091672273      1.49193642998608
  H   1.37824738481332      2.63844117378614      0.24874283037128
  N   3.47401406316666      1.53550671833726     -0.71203863512513
  H   4.31014323080184      1.02678839275679     -0.94073358532218
  H   3.35327021140330      2.45452550735603     -1.09393815421116
  H   2.21926111906075     -2.25590636920243      0.77939444995268
