26
Coordinates from ORCA-job ./opt_b97-3c_parallel
  N   4.91946346171302     -0.21995850485435      0.92153747968780
  C   3.79880734565537     -0.01552012434624      0.67141588722746
  C   2.44509923813728      0.16224606169134      0.34278480501807
  C   1.87740694797092      1.42985385374293      0.42901871279577
  C   0.60820987082427      1.86184821616069      0.10815541057783
  C   -0.57069333172975      1.14336117544599     -0.17223212934377
  C   -0.59537829983819     -0.31420921591993     -0.12916635526682
  N   0.46955770780379     -1.07059012807289     -0.47488099903811
  C   1.75804496387243     -0.92430826309994     -0.31098519594139
  N   2.52394407425228     -1.90862335793233     -0.83212185932539
  H   2.06937852369156     -2.71714554437496     -1.21276141004672
  H   3.52435681105409     -1.89128742523327     -0.75672607653364
  C   -1.71636663772268     -1.07172475646093      0.21024987188753
  C   -3.08445220913554     -0.77758353694268      0.29520837851619
  C   -3.70177497154034      0.42629289581223     -0.06353510124807
  C   -3.05984260031793      1.58563612490188     -0.44673293806549
  C   -1.71485983613464      1.90402101756666     -0.47784909090886
  H   -1.50489114269486      2.94054058561536     -0.71377636379376
  H   -3.71949021747733      2.40282788069805     -0.71630470807887
  H   -4.78384711698225      0.45371493319714     -0.02265712030158
  N   -3.89761592159007     -1.78663169429046      0.74437813866002
  H   -3.53222477445506     -2.72163848224077      0.75828827943979
  H   -4.88010650153294     -1.72536111017050      0.54675725719976
  H   -1.46434861397171     -2.11634755478717      0.35334062139276
  H   0.46957915121852      2.93356510213077      0.17258707753489
  H   2.55294289154042      2.20643473307269      0.76681357265777
