27
Coordinates from ORCA-job ./opt_b97-3c_parallel
  N   -4.44100639376106     -1.82136915166882      1.72728507443032
  C   -3.65934786702631     -1.15008390462489      1.18903232549843
  C   -2.69454605307267     -0.35369034360361      0.52474791762944
  C   -2.91106150014777      1.00191194191383      0.45047029712387
  C   -2.15893811668688      1.98300800364505     -0.21936356729909
  C   -0.84879214843113      1.92799368665930     -0.63130089132405
  N   -0.28041584061867      2.99733932679375     -1.25579961256447
  H   0.60197935855535      2.86375769127264     -1.71514906995582
  H   -0.87378946349574      3.70622489742810     -1.65031838107910
  C   0.05119968123696      0.80877376734109     -0.32558299003297
  C   1.32662579786319      1.03858169381274      0.08345683913157
  C   2.33137735739756      0.06360282617211      0.37736731546485
  C   3.41755988153374      0.46805017720364      1.18290261292559
  N   4.33211496586760      0.75552248197460      1.84283581236159
  C   2.36025256268180     -1.24156278271030     -0.10744678738170
  N   1.63785356997262     -1.66138884438294     -1.19582963943364
  C   0.42998419999820     -1.33097474140309     -1.43693461859015
  C   -0.46464679892798     -0.53580765406018     -0.56894958089244
  C   -1.64311162100581     -1.04802791668703     -0.16663291668719
  H   -1.83884487701360     -2.08850071731025     -0.40215013690647
  H   0.03514407552968     -1.65102613337064     -2.40029864315455
  N   3.22478584177691     -2.17395264110377      0.36209499529926
  H   3.94814668631683     -1.88910834313688      1.00067036963840
  H   3.44141886422562     -2.93831588292510     -0.25281546896186
  H   1.61005994650999      2.06272549302386      0.28917971513815
  H   -2.66790223769751      2.92771630854293     -0.37476994788156
  H   -3.82974283518074      1.35660701350395      0.90127554120396
