22
Coordinates from ORCA-job ./opt_b97-3c_parallel
  N   -1.55570452895770     -2.94634108205515      0.80140290617377
  C   -1.26228517091306     -1.86926308143071      0.47308206527718
  C   -1.02801943770007     -0.52730347111012      0.11263172273576
  C   0.29266830996449     -0.20730384912201     -0.33761385593457
  N   1.02013907381363     -1.15357656579055     -0.87294467430470
  C   2.34128357376587     -1.30346866195641     -0.92676680894791
  N   3.27531481736019     -0.84237161681877     -0.12912630453866
  C   3.05583148693520      0.22210391320915      0.67153637132334
  C   2.06024619700601      1.16222367248802      0.64301115234142
  C   0.83583134130760      1.13942282541105     -0.09166225477922
  N   0.23911246817144      2.26455558370814     -0.37620790999609
  C   -1.05649135734289      2.43881009722985     -0.68446087280746
  C   -2.13821571983670      1.67056924299831     -0.37742852214622
  C   -2.13766150935824      0.33801443723965      0.12832716713307
  N   -3.32351770516226     -0.14015939690564      0.55558424448444
  H   -3.43370601257727     -1.10976868087380      0.79956496532689
  H   -4.15163366441712      0.41996860760006      0.48946925631232
  H   -3.11087653611174      2.11411568619798     -0.55098135059920
  H   -1.25984491298776      3.39241770170312     -1.16103748387621
  H   2.18921156541488      2.04063235761933      1.26385268035367
  H   3.86326448924197      0.40609933052373      1.37287648504117
  H   2.67347760508406     -2.00558053576384     -1.68499810487403
