28
Coordinates from ORCA-job ./opt_b97-3c_parallel
  N   -3.86297483421788     -0.11824969592941      1.00468656863125
  C   -2.62605299269060     -0.38140558193000      0.44015154719637
  N   -2.28414641600102      0.55114619545674     -0.50278886394615
  C   -1.06327468091877      0.87506520349831     -0.77676001968002
  N   -0.82321708687049      1.60649345393571     -1.90087048912379
  H   -0.00418252255180      2.19166585386937     -1.88464451331910
  H   -1.63371700456006      1.99811528718334     -2.35262236596775
  C   0.14513498057263      0.47126187408296     -0.00886288019471
  C   0.96000912024604      1.40866547008140      0.54143962603135
  N   2.17528140837249      1.21576474375253      1.16425762824646
  C   2.97832757360058      0.24844617107308      0.83140411279685
  C   2.84270566353465     -0.83434525079420     -0.07257308046317
  C   1.66843424455977     -1.43509676117561     -0.45713413982485
  N   1.68625630111534     -2.57811551038673     -1.20061301958930
  H   2.53840876369927     -2.84006619447483     -1.66586436467321
  H   0.83701385106314     -2.83397964974059     -1.67150288934341
  C   0.36419129382403     -0.97201842694479      0.00428606589430
  C   -0.61655970407846     -1.84893930161474      0.36184674843372
  C   -1.93555051327663     -1.52558327933623      0.75700245872856
  H   -2.47043986239178     -2.27828866273816      1.32525357811995
  H   -0.35462229489296     -2.90104467106223      0.40105293463490
  H   3.77104056416242     -1.31264982676693     -0.36700355955143
  H   3.95570497948994      0.31133518786150      1.31020921799608
  N   0.62743662530141      2.77136712304081      0.47695561356293
  H   1.21322603519452      3.29337327664726      1.11074398441481
  H   -0.34827107011301      2.96542659069393      0.64716227252830
  H   -4.32811813726051     -0.90517750894249      1.42537281247643
  H   -4.46427928311152      0.42798951245976      0.40951137658478
