31
Coordinates from ORCA-job ./opt_b97-3c_parallel
  N   -4.27370909525584     -1.12787973935792      2.15716484054472
  C   -3.40773355699626     -0.76111802850065      1.46944326708376
  C   -2.40044814736132     -0.26156406203730      0.62087649205267
  C   -1.42393585789166     -1.19566841896657      0.14358699792601
  C   -0.18987063340854     -0.91002093033729     -0.31920730127801
  C   0.66617928439370     -1.95536902825954     -0.91937034697313
  N   1.86122897843086     -2.26738237432639     -0.50531097047836
  C   2.54467648325270     -1.56863838630342      0.41235778301827
  C   2.49994871081740     -0.22577647215504      0.71466753130370
  C   3.47623398296282      0.26009739521751      1.61589314649957
  N   4.26932738606467      0.70829206365290      2.33960265135797
  C   1.60403564108686      0.75541071164193      0.12583388236549
  N   2.06312095094072      2.07551314445521      0.06853507500656
  H   1.35410534253614      2.76045045486684      0.28299956575411
  H   2.88938606709392      2.24381857110140      0.62187635150322
  C   0.38607197717999      0.42814056615286     -0.38971375676048
  C   -0.42524751307328      1.41560393002308     -1.12344501304719
  N   0.18828356767557      2.00980581059836     -2.19288315240604
  H   1.19026705652636      2.09823687217996     -2.13236098488556
  H   -0.27057594558966      2.79672239328625     -2.62133396884397
  C   -1.71712333016697      1.69842099853882     -0.79576552670053
  C   -2.53374699162526      1.06181839816862      0.19153780693735
  N   -3.56313696361239      1.81594784204906      0.67311693221531
  H   -3.78151418514690      2.68593027176525      0.22619245760188
  H   -4.31737870082246      1.36677091831676      1.16455310101992
  H   -2.19575483026775      2.51068305030116     -1.33512764199736
  H   3.30370752333251     -2.14779940949936      0.92657894821777
  N   0.15266032567966     -2.64241800261356     -1.95623464169000
  H   -0.74031070581865     -2.39360678555531     -2.33560165085319
  H   0.73036626893440     -3.30475410920946     -2.44510854056224
  H   -1.71784097749031     -2.23859909298616      0.18364634306925
