27
Coordinates from ORCA-job ./opt_b97-3c_parallel
  N   -4.90723526728432      0.10069394178097     -0.33618842853928
  C   -3.75564424173853      0.18208382890804     -0.19959129954856
  C   -2.34673707286425      0.20504001327258     -0.07304231533448
  C   -1.79794297193189      1.35886565525130      0.52682889958214
  C   -0.50686546190857      1.81200277176226      0.54780487804054
  C   -0.21564315311604      3.05135075126590      1.16334273652861
  N   0.03557137784777      4.06013448345995      1.68078223272686
  C   0.58988262319405      1.15900698295801     -0.14480171905170
  N   1.43544825248468      1.88085923059091     -0.80001429506059
  C   2.65469394567848      1.62440838052425     -1.27811872209079
  C   3.55801399791190      0.73775250252487     -0.74951485104549
  C   3.24628925394949     -0.23941870895129      0.20243751785394
  C   1.99746165757039     -0.70710249662287      0.55521490808446
  C   1.92826556147506     -1.66163418720331      1.60077554904576
  N   1.87057832460349     -2.42348874231255      2.47547199725570
  C   0.72183903578844     -0.29252721663238     -0.01356616114295
  C   -0.26538838335452     -1.20682854350356     -0.29562180716203
  C   0.11640370493766     -2.56733725822800     -0.41492097274432
  N   0.36110743480795     -3.68827254206254     -0.59509719814095
  C   -1.67692279122542     -0.94876508852940     -0.51950545636726
  N   -2.38283199130522     -1.93305607232167     -1.09697180168738
  H   -1.95772118590588     -2.82136528128843     -1.30066023091396
  H   -3.38627410352641     -1.87616269931593     -1.14968657635420
  H   4.07833658427364     -0.73130738458375      0.68924792080030
  H   4.58977148536167      0.82413116138316     -1.06128124240184
  H   2.96457742031941      2.28397719559779     -2.08000293564753
  H   -2.52873787614230      2.02061031026878      0.97171478481268
