25
Coordinates from ORCA-job ./opt_b97-3c_parallel
  N   1.80384156946605      3.25242328424476      1.04960908390320
  C   1.87552569584118      2.15055709714433      0.68403018000746
  C   1.96474783140370      0.80806372411781      0.23601662638743
  C   3.26971960472540      0.38132975712059      0.03187311561764
  N   3.79333275228276     -0.76653633439683     -0.39441243079444
  C   3.06864219435882     -1.87127958615980     -0.47464189569018
  C   1.74284996107690     -2.14229832342778     -0.16450923404372
  C   0.63261460185075     -1.31790311574249      0.08028102175816
  C   -0.56758696084702     -2.00985975484057      0.39108321322479
  C   -1.88099941259902     -1.62701396644706      0.39247502427694
  C   -2.49493247115044     -0.41051230787852      0.06887748609771
  C   -3.90240855752776     -0.35588815239478      0.05513432715549
  N   -5.06101368838221     -0.24448816359147      0.02453316322411
  C   -1.79642148966359      0.78069032639355     -0.23648846111506
  C   -0.39394781728214      0.96053359385565     -0.19809213279719
  C   0.68569627625656      0.12719720057240      0.00930341789774
  H   -0.11807793917631      1.99782941647769     -0.33339912915187
  N   -2.51662195641500      1.87261730186011     -0.55086165317034
  H   -3.52201495847784      1.85441918010029     -0.52706753064525
  H   -2.07111094912890      2.76150648283130     -0.68380990891873
  H   -2.57720557766686     -2.41360891221863      0.65549426327776
  H   -0.41566223561917     -3.05370372276077      0.63233815680690
  H   1.50423982271119     -3.19804425480953     -0.20638130262377
  H   3.63805390236424     -2.73643159412797     -0.80517838331808
  H   4.01855357079872      1.14091410547771      0.23639320943332
