26
Coordinates from ORCA-job ./opt_b97-3c_parallel
  N   2.04641262459161      2.63576788544091     -1.96753938311941
  C   1.92847667169595      1.66197727793099     -1.34112692481690
  C   1.77540014549183      0.48515710031829     -0.56980263736884
  C   2.93403637394096     -0.19094143833604     -0.24862425128590
  C   3.09159576931850     -1.37539213467520      0.47269168328193
  C   2.09169035134693     -2.27127997586364      0.77772952218998
  C   0.73748357984654     -2.22135052500804      0.45468427982823
  C   -0.04208708841637     -1.17701322143945     -0.03138212915635
  N   -1.26502475813048     -1.51677694468580     -0.49233765730605
  C   -2.40614571671552     -0.89292637783461     -0.35538732433228
  C   -2.68900328399208      0.29969029216580      0.36050885952138
  C   -1.77127746507282      1.30064432563236      0.57000288101702
  N   -2.17753601293090      2.46215410393948      1.17091906284854
  H   -1.58944096994512      3.27091854353513      1.08352645717884
  H   -3.16117102235129      2.66103682888976      1.20844261309410
  C   -0.39115939754639      1.27152849907932      0.19127473815949
  C   0.41507607174395      0.21089975442213     -0.09676839019139
  H   0.08791641258932      2.24267328095516      0.16683888651637
  H   -3.72343701703610      0.48564688717098      0.62264231235548
  N   -3.48306090954967     -1.53045061415477     -0.92067416226008
  H   -4.25114926248334     -0.96421856685275     -1.23387073665272
  H   -3.24325997181811     -2.30266900509454     -1.51978727417119
  H   0.17720181284428     -3.13723006937710      0.59688584077067
  H   2.40921755980275     -3.18645321260693      1.26492673701693
  H   4.10506039125077     -1.65411908452485      0.72811881657173
  H   3.84658837392436      0.27706019397171     -0.59800212458931
