23
Coordinates from ORCA-job ./opt_b97-3c_parallel
  N   -3.50734556287776     -2.32707776576058      0.83094545205983
  C   -2.43455827912437     -1.93786053451221      0.61407323259846
  C   -1.12419068518932     -1.46549077952124      0.37534563259986
  C   -0.06775065728766     -2.36639481622146      0.46747437837796
  N   1.19236296490052     -2.27547524448034      0.07587879349393
  C   1.87417939375141     -1.18237854529401     -0.24448888865173
  N   3.06653179458493     -1.41130489234824     -0.81859896448848
  H   3.71417525939663     -0.66517314819206     -1.00137482694246
  H   3.39530036711753     -2.36021397964306     -0.85091571192284
  C   1.53741203840419      0.18624619821447      0.06353607311636
  C   2.59729475456181      1.11292791819517      0.16178030292667
  N   3.51567214525335      1.82541697482775      0.19293267820042
  C   0.25052971955971      0.63007779588071      0.32717039448777
  N   0.03944651239202      1.76295899324573      1.00152723195205
  C   -0.84214306476293      2.70633286520073      0.81868370210264
  C   -1.73378307638745      2.83252245877711     -0.25788783774693
  C   -2.09238339036305      1.76413541310897     -1.04550022795233
  N   -1.87179343325456      0.47438689058227     -0.78923973379629
  C   -0.96292303712868     -0.11951525589679     -0.07502481759220
  H   -2.71379994217466      1.93747669924531     -1.91719643896614
  H   -2.20537193253753      3.78994640796472     -0.43008296873258
  H   -0.84129539634254      3.47785145174642      1.58265326813061
  H   -0.33401657489010     -3.35414103321609      0.82938353474815
