26
Coordinates from ORCA-job ./opt_b97-3c_parallel
  N   -5.26375788301980      0.16457346725117     -1.37577612274310
  C   -4.18797794961127     -0.00940182215958     -0.96579933045787
  C   -2.89445359654557     -0.15744231018038     -0.42820659988658
  C   -2.22612967592433     -1.35381942141549     -0.59105139402530
  C   -0.99411290486543     -1.75763772020436     -0.07958933089544
  C   0.02243805494857     -0.97160331296652      0.43276913539102
  N   1.07980059559688     -1.59576732569706      0.99295626232081
  C   2.34074378436783     -1.30095895719815      0.89837523535807
  C   2.98456918715147     -0.31092731600686      0.12691478663245
  C   4.37368120891190     -0.43150054376967     -0.06647247911158
  N   5.52074895268363     -0.48075704826458     -0.26072545057458
  C   2.35928534605664      0.88143142824499     -0.31989275180549
  C   1.02574519399749      1.25056958413632     -0.04889780867322
  C   -0.04835780333086      0.49013636299420      0.36447535137582
  N   -1.16505157293134      1.15095255592583      0.73734922968292
  C   -2.41028994116954      0.89401427083088      0.45542759674183
  N   -3.34047384000132      1.68438959817378      1.03081101859324
  H   -3.03247478418687      2.49199731606110      1.54019245839389
  H   -4.31347876102952      1.59699938119618      0.80171694095594
  H   0.78484844519576      2.29492400284100     -0.20771054352016
  N   3.12027664916206      1.78895958176365     -0.96694783243596
  H   2.74897354599669      2.68912108072849     -1.20395026406550
  H   4.10905785872066      1.64793990098479     -1.08049063775481
  H   3.00046766545161     -1.94940363195176      1.46818866167751
  H   -0.76780023714878     -2.81452161422165     -0.13211573589155
  H   -2.76969790257629     -2.11182501949811     -1.14112103698486
