23
Coordinates from ORCA-job ./opt_b97-3c_parallel
  N   0.67149990961473      2.60473684683839     -2.18105321965138
  C   0.89627432606759      1.77109280771015     -1.40401245424198
  C   1.16245821393586      0.73021518411534     -0.48055523724478
  C   2.46150894083831      0.48172459955156     -0.12707651705377
  C   2.92452846736322     -0.57754332121892      0.68144895807594
  C   2.24155668323259     -1.73294283284147      0.92726880259013
  N   1.12344215064655     -2.16717965753871      0.30601210926980
  C   0.14359412848525     -1.48045296752040     -0.17399892657037
  C   -0.84506542262694     -2.16127906854485     -0.99219699511773
  C   -2.18041575095768     -2.03941521588016     -0.83822978666259
  C   -2.87964158652168     -1.17510405373454      0.05605126913896
  C   -2.42136200647384     -0.04278852622514      0.64317811248954
  C   -1.13640187568742      0.57165472397424      0.46297686238272
  C   -1.06833095534942      1.94757906573040      0.81997306473487
  N   -1.03728989443660      3.05601213720301      1.16122561659086
  C   0.00270583801329     -0.03107425996671     -0.00666159330616
  H   -3.12678786188701      0.53287886601456      1.22694636998933
  H   -3.92212306399408     -1.41466327341610      0.22292771404720
  H   -2.80051214898059     -2.70325715997334     -1.42896881441900
  H   -0.45334014665909     -2.88361887824636     -1.69754795985732
  H   2.68324170599775     -2.46804005875574      1.58998305222483
  H   3.92576674753351     -0.49567971382425      1.08324977644274
  H   3.19852375534627      1.18988024794895     -0.48423418495196
