22
Coordinates from ORCA-job ./opt_b97-3c_parallel
  N   2.68409244571253      2.91111178437362      1.22849395829056
  C   1.70170226038149      2.40611480832121      0.87115472034251
  C   0.48923905799618      1.80359271908300      0.45395375126554
  C   -0.62960702187873      2.62372701329442      0.33371416849296
  N   -1.79735508950887      2.41308417307175     -0.26115928315400
  C   -2.28872780542989      1.25054242303160     -0.64595567939844
  C   -1.88290283175061     -0.05661239578864     -0.34409300031606
  C   -2.79663511788527     -1.10152455700519     -0.63136355750073
  N   -3.55098443578053     -1.94242834418905     -0.89830171253844
  C   -0.65693710634682     -0.42769966978564      0.26123011750333
  N   -0.56044940007449     -1.56712259128095      0.91720802452086
  C   0.49606428191362     -2.31739056444839      1.17637914554516
  N   1.64314550308740     -2.41810041660985      0.53486488530068
  C   2.01379172385751     -1.41884370343941     -0.29157587276316
  N   1.68261315323978     -0.12113761973567     -0.22616145176470
  C   0.54216018559255      0.41197637584641      0.12880199321042
  N   2.94181044893269     -1.72914768486996     -1.20184962484074
  H   3.31372399861969     -2.66167778121455     -1.21663371429297
  H   3.40129087979818     -0.99932138661524     -1.71585170895976
  H   0.35228148360626     -3.02593258776055      1.98541144624767
  H   -3.21049630675502      1.32798080228922     -1.21349612196929
  H   -0.50356943562786      3.63693117423131      0.70075433137892
