34
Coordinates from ORCA-job ./opt_b97-3c_parallel
  N   -4.23866455829243     -1.45593576551921     -2.23328095690334
  C   -3.44163182467911     -1.00421069707834     -1.51293992218419
  C   -2.52462576697163     -0.40782543290202     -0.62541679417327
  C   -1.47658223793791     -1.23929664706368     -0.11651539897734
  C   -0.29019108591053     -0.84343478708364      0.40245042236551
  C   0.59521989644637     -1.82433087591933      1.03072526907734
  N   -0.01947648082738     -2.78566349946168      1.78194424455077
  H   0.54684476231748     -3.39722430655577      2.34495494751882
  H   -0.92311754320280     -2.56493899754342      2.16011067440375
  C   1.94971948751628     -1.85658630894301      0.84879975837414
  C   2.70597267797624     -1.08534142157468     -0.07634822573822
  N   3.91389365381604     -1.62928411387588     -0.42461337798225
  H   3.98502084864035     -2.63094349453764     -0.42279227618412
  H   4.44458377514859     -1.17411355465651     -1.14879411001438
  C   2.36464759293677      0.17524926082571     -0.57159288025766
  C   3.22688767218375      0.74325619490890     -1.52470633992407
  N   3.96370931872614      1.20489904877121     -2.30317457096761
  C   1.30396199947806      1.02078022250157     -0.05304792055889
  N   1.56647885325447      2.39883947434057     -0.05673040914163
  H   2.38688114483016      2.65622964526177     -0.58252842205593
  H   0.77763470260870      2.95887772374713     -0.34305375725695
  C   0.13274571420628      0.55990565220168      0.45883979894517
  C   -0.79354907101654      1.46169808584829      1.16174994743833
  N   -0.26366706458731      2.14885925048565      2.22144433748132
  H   0.72383736452761      2.33904548624029      2.16014215412311
  H   -0.80292301623858      2.91121953741811      2.59845267222528
  C   -2.10964720072512      1.59562391147506      0.82866044753100
  C   -2.82713483721681      0.88274846503312     -0.17824684063828
  N   -3.93234870052616      1.51249031598835     -0.67126260187125
  H   -4.26086741918734      2.34343133597805     -0.21746142500672
  H   -4.61950733438700      0.98037646140986     -1.17802002667880
  H   -2.68387041849504      2.34506713867750      1.36573737033646
  H   2.50384113566739     -2.63248234347100      1.36564874711299
  H   -1.66111081297856     -2.30503142812750     -0.18636116776910
