23
Coordinates from ORCA-job ./opt_b97-3c_parallel
  N   5.00612734565973      0.43929455106280     -0.72418490920376
  C   3.89315273713823      0.23076064951635     -0.46628111534435
  C   2.53166701225388     -0.01250000103037     -0.14836558819821
  C   2.02664450199661     -1.26869564197151     -0.42187519216763
  C   0.76965974563132     -1.78493800832210     -0.10197715749912
  C   -0.35964723429602     -1.13406651096612      0.34399306918409
  N   -1.33187303444334     -1.90201303957264      0.93978503224402
  C   -2.55507621698572     -2.01158403561194      0.56769860511147
  C   -3.23691122884071     -1.21890794537351     -0.40233478719070
  C   -2.91355101794789      0.08537888577950     -0.61278054801239
  C   -1.78805257014980      0.81644360850855     -0.12254935143108
  C   -1.89332245008527      2.22667167239394     -0.22869461508023
  N   -1.98783397747326      3.38126001303837     -0.31661211635848
  C   -0.56287843765431      0.29758929371032      0.30423071749213
  C   0.49499199604134      1.17574312270012      0.71367206288113
  C   1.82887375494050      1.04504105434837      0.49755499164172
  H   2.44063331108011      1.88201664759164      0.80812368849946
  H   0.17731602842220      2.10695944578652      1.16616692997922
  H   -3.62703716194079      0.68176571289592     -1.16747071602103
  H   -4.18426878714910     -1.58180216029403     -0.77622661445792
  H   -3.15562133273718     -2.72402164814570      1.13041139220667
  H   0.66925377634598     -2.86238859950623     -0.15784554947016
  H   2.72378808649363     -1.97525540883721     -0.85292072440501
