34
Coordinates from ORCA-job ./opt_b97-3c_parallel
  N   -3.70366964475663     -1.72156575619694      2.00408225167476
  C   -2.95442549630778     -1.14246758030002      1.32087125894936
  C   -2.07369811454141     -0.43810108970741      0.48441130806804
  C   -2.50482336675021      0.78855408056541     -0.02352687430113
  C   -1.74376027203438      1.67899998462198     -0.82938486342213
  C   -0.37961998923568      1.83425055614913     -0.82986623944326
  N   0.16403636344257      2.91370717717941     -1.47792292124103
  H   1.14451791707591      2.87754482972899     -1.69199116383687
  H   -0.40637845151584      3.41076405627260     -2.13934054308867
  C   0.52652984962896      0.94167943323354     -0.12695333848747
  C   1.63343236965038      1.36848215471071      0.57325500641122
  N   1.89103212492312      2.72737565646177      0.77597794180919
  H   2.54828465040684      2.90847881884280      1.51582945888239
  H   1.07429308714648      3.31256577351919      0.84919122730029
  C   2.60653785645348      0.47953572858736      1.11714955242600
  C   2.96837890531746     -0.75049795757917      0.63087735472557
  N   2.56746479667462     -1.34168329672549     -0.53590896751333
  C   1.36331797537191     -1.20068788620712     -0.99524944259478
  N   1.08289732098115     -1.68232848898504     -2.23588017382170
  H   1.76674188740785     -2.30409341350232     -2.63646835384461
  H   0.12039644144289     -1.91591157691218     -2.41210555571038
  C   0.27028755994696     -0.49303685033545     -0.29462192464399
  C   -0.87564155931266     -1.13043373414420      0.03387850998220
  N   -0.99580771594574     -2.51796696650442     -0.14674561904991
  H   -1.83001786310373     -2.90743834106770      0.26305222326281
  H   -0.18538883055859     -3.03595577508285      0.15652307438935
  N   3.89639529864335     -1.52276553630382      1.30657576173961
  H   4.38745403218705     -2.16579520646426      0.70794947479310
  H   4.49763312222019     -1.03530725056507      1.94926334769959
  H   3.18146384090089      0.85486404408329      1.95831726844207
  H   -2.32623010847400      2.39172718081023     -1.40419476043529
  N   -3.80785536539830      1.17200981190049      0.18382226842193
  H   -3.98946375709583      2.15911752515399      0.22346786577511
  H   -4.35407257689069      0.62572151516057      0.82946624588038
