25
Coordinates from ORCA-job ./opt_b97-3c_parallel
  N   -5.34855853868088     -0.02373467313682      0.68836035227643
  C   -4.21297996233051     -0.01876253191587      0.44007193456032
  C   -2.83338383357433      0.02543512532528      0.13935145234159
  C   -1.99219754434538     -0.96858341550566      0.61157878283036
  C   -0.63048690371779     -1.15214398368338      0.37224949845798
  C   0.32053882579413     -0.24836901519672     -0.08493813879283
  C   -0.06422746000679      1.13352094839915     -0.34773439695388
  N   -1.19820863451495      1.34784009242040     -1.08613509707058
  C   -2.39634652453650      0.94481535259472     -0.86667930751500
  H   -3.14962179913397      1.29193109786889     -1.56963386376541
  C   0.66266867534808      2.23139871585475      0.02755003058407
  C   1.97731818445212      2.27049731488832      0.51992973163187
  C   2.94544646365339      1.31274443863473      0.50272920789447
  C   2.85990393002849     -0.00629339576676     -0.02528945053017
  C   1.66716085975884     -0.70151505851207     -0.31053977485253
  C   1.82498875083323     -2.04673452037531     -0.69796482769261
  N   2.02867458987375     -3.14844557544894     -1.01667755313815
  N   4.03599301571447     -0.64798929564782     -0.19578837929943
  H   4.90269597633788     -0.18727201218608      0.00325905632108
  H   4.07314289657111     -1.60062476053694     -0.51417153802685
  H   3.92492943985676      1.60466826317031      0.86066737745655
  H   2.29349989159326      3.23665385152055      0.89540276841372
  H   0.16761642937823      3.18366587934185     -0.11565881575225
  H   -0.24280068548110     -2.11343317544331      0.68236901224866
  H   -2.46734025877650     -1.75097859195706      1.18988717548510
