26
Coordinates from ORCA-job ./opt_b97-3c_parallel
  N   -4.40831328057098     -0.61796990116027      2.19309529840373
  C   -3.53232461089558     -0.24268075872433      1.52870073678566
  C   -2.45850398426945      0.18818702713609      0.71019282243342
  C   -2.35564352021896      1.53646043555156      0.44810806401904
  N   -1.57924135659371      2.16291859756742     -0.45368152494287
  C   -0.43748520766090      1.74017363851361     -0.90257789331927
  N   0.08830364889299      2.32318194298084     -1.99558740101850
  H   -0.40042971616251      3.08857420945972     -2.42716344037663
  H   1.02302141812010      2.11387420670548     -2.28918488480721
  C   0.35062728014646      0.63609883362981     -0.29559013398280
  C   1.60721745702821      0.82920495609536      0.15942885826675
  C   2.45830116405803     -0.18835477253937      0.71033647102602
  C   3.53209361497718      0.24225479442466      1.52902169847630
  N   4.40812820483938      0.61733938545075      2.19347004259044
  C   2.35545462886317     -1.53654688423913      0.44782020707024
  N   1.57912844943957     -2.16271468320516     -0.45423682064603
  C   0.43741547906873     -1.73981891229937     -0.90310160599766
  N   -0.08827365244768     -2.32246592156291     -1.99635141627797
  H   0.40049828025331     -3.08771454181545     -2.42814068061585
  H   -1.02296109160827     -2.11304967347659     -2.28997247230989
  C   -0.35074856717028     -0.63593973687591     -0.29582488719244
  C   -1.60737644511661     -0.82919414002254      0.15902429800291
  H   -2.00315825330495     -1.83784008605192      0.15372390901947
  H   3.06693435152293     -2.18869287900013      0.94015015441437
  H   2.00300138369322      1.83785323797601      0.15448579190408
  H   -3.06716535338394      2.18844629708079      0.94058558377457
