23
Coordinates from ORCA-job ./opt_b97-3c_parallel
  N   3.57315211039715      2.33555880748819      0.21349923885232
  C   2.48780137625681      1.92333318413693      0.20192082947699
  C   1.15417428646197      1.44464353878196      0.21419562752285
  C   0.13064489771168      2.38826150466722      0.46505531615641
  C   -1.21513290471456      2.30522160854682      0.26819600012926
  C   -2.00585922521170      1.20258811108206     -0.15527164478144
  N   -3.28723707101655      1.47305420204288     -0.47022818249639
  H   -3.93880703470020      0.73326568291648     -0.67071184196935
  H   -3.66072145940415      2.39382196950119     -0.33690729673304
  C   -1.58964948701475     -0.14999912315196     -0.17446063595657
  C   -2.59391931379393     -1.12424830117583     -0.35587325099508
  N   -3.47995961430770     -1.85372984988241     -0.54314777507620
  C   -0.30081784392538     -0.61416012765649      0.17607298888763
  N   -0.16288115318697     -1.76622804296386      0.79655697774107
  C   0.88253436276420     -2.57490533721319      0.90036200636189
  N   1.89568671596732     -2.75657683705852      0.07410394663437
  C   2.14128029331241     -1.82920334774428     -0.86364105711573
  N   1.82845002098648     -0.56311853736382     -0.87702113606944
  C   0.93819741630092      0.12010655092340     -0.15317466180853
  H   2.75882791353601     -2.15692534160091     -1.69334476338859
  H   0.83147305270124     -3.25581400373333      1.74388517324424
  H   -1.76530843008727      3.22522696673059      0.41998574496145
  H   0.49003747246629      3.36276614432666      0.76874411602292
