19
Coordinates from ORCA-job ./opt_b97-3c_parallel
  N   -3.15014809663877     -1.16486012411416     -0.82517152559785
  C   -2.18366875596371     -0.48128273511918     -0.17896743929197
  N   -2.51813852551941      0.75273468629210      0.18267418969220
  C   -1.68763659109425      1.60222263191520      0.79111498283793
  N   -0.38730588644622      1.72784916537098      0.73547651351831
  C   0.41538448649117      0.81584932505528      0.17141419500407
  N   1.39523982018369      1.18060061927729     -0.61236854732104
  C   2.41235162946476      0.40730401779380     -1.01370636343352
  N   3.02808328549520     -0.57308900908041     -0.39934731634670
  C   2.47938029942563     -1.14847443617528      0.69718959331083
  N   1.23404739696640     -1.27753176549377      1.04105477462930
  C   0.19874313256498     -0.61938261900776      0.45246939228380
  C   -0.99652953393591     -1.20441620590536      0.16486726249934
  H   -1.05618069955065     -2.28423881723128      0.22665806414055
  H   3.19157143768415     -1.65397446991282      1.34235808422537
  H   2.85509313800336      0.72049186659402     -1.95479875964583
  H   -2.19408583889720      2.37893144244366      1.35637313372540
  H   -4.01791698420683     -0.69830826590818     -1.01943710631787
  H   -2.98516779682707     -2.07456921429421     -1.21100698821219
