26
Coordinates from ORCA-job ./opt_b97-3c_parallel
  N   -0.57451546636607     -3.57460268988628      0.70170942240815
  C   -0.57639449064518     -2.43265133574038      0.46350104295324
  C   -0.67179306943446     -1.05590187671960      0.19010924336835
  C   -1.99558033052918     -0.56343655732063      0.10843489650373
  N   -2.44104753445766      0.65341203637430     -0.25326895874578
  C   -1.71385940637446      1.74901366500133     -0.19150687765215
  C   -0.36073591227756      1.94261538244304      0.19310004989806
  C   0.69506321796301      1.05672407715881      0.22109454346256
  C   1.94742413548712      1.61713680219703      0.65152888908045
  C   3.24288571813249      1.23658102389332      0.46028307559544
  C   3.74866050400251      0.12155115678862     -0.22470883115627
  C   2.99431464654597     -0.92520477979289     -0.68108859397678
  C   1.61942363095097     -1.14768208246103     -0.54620370755836
  C   0.57280363218906     -0.36482204225407     -0.06984777732310
  H   1.31367852713456     -2.13424163103745     -0.86945474627657
  H   3.53279132183602     -1.73215547438076     -1.16444812785567
  H   4.82067593906292      0.07047677068777     -0.36320822187182
  H   3.98337974581273      1.91290008303141      0.87282703739859
  H   1.82568022983334      2.54772822993078      1.19419053942435
  H   -0.10572532435226      2.97362636406713      0.40540148973797
  N   -2.40791548045245      2.88659524144268     -0.48053118898244
  H   -1.91024986865777      3.71336943837251     -0.75477767899602
  H   -3.32694109492613      2.75732411993769     -0.86609923888798
  N   -3.01254419250156     -1.41665006977607      0.35849701517766
  H   -3.94127857453338     -1.08682666114169      0.17318187267053
  H   -2.85682854164185     -2.39749798131517      0.50923544210412
