31
Coordinates from ORCA-job ./opt_b97-3c_parallel
  N   -2.72245149422452     -3.38751236898816     -1.49104931201965
  C   -2.10685805507872     -2.52213365597251     -1.01276379330555
  C   -1.41465575476733     -1.44425802151119     -0.42444765433716
  C   -0.11936580090826     -1.72934166541292      0.12682402492576
  C   0.89922127441374     -0.85869819876414      0.28315008798978
  C   2.14256886679326     -1.27761531393015      0.93660505085388
  N   2.02043664623651     -2.08287581052755      2.01893535011544
  H   2.82726925317753     -2.31318141033198      2.57196101150210
  H   1.12624247530575     -2.16214094155888      2.46669030016744
  C   3.37658911816954     -0.97034644938614      0.41574136955889
  C   3.61752737879447     -0.24704526335383     -0.77148192710951
  N   2.91432110522812      0.64721846934234     -1.40935038053095
  C   1.74413988009800      1.16583339096874     -0.91812603180307
  N   1.56353591591609      2.48568062857390     -1.33150122754568
  H   0.61509846077266      2.74324621049501     -1.55688110900507
  H   2.20205468504850      2.70997690479212     -2.07841599948376
  C   0.82801880077383      0.55429008253316     -0.10247245201332
  C   -0.27749898621951      1.31373038560727      0.49068522343496
  N   0.06534750655147      2.41786074686833      1.18780396649604
  H   0.97974429698194      2.80308939745619      1.02735935615496
  H   -0.64454081055372      3.05384442386614      1.51435276227591
  C   -1.60598930933051      0.92645400771535      0.39063114669208
  C   -2.56775931045677      1.78771962336491      0.95287286164004
  N   -3.33272621482633      2.53978700669246      1.40826050443188
  C   -2.10171068221477     -0.24142866320681     -0.31928418878979
  N   -3.35130173843145     -0.12429156117267     -0.84156673274039
  H   -3.84132769244439     -0.95851895937431     -1.11798073651494
  H   -3.92510570031092      0.65491216400401     -0.57276413329746
  H   4.59185742106701     -0.43142813212460     -1.22203021245923
  H   4.24549682955015     -1.43372394405974      0.86967580272085
  H   0.05076630668843     -2.76617956730399      0.39171729119572
