32
Coordinates from ORCA-job ./opt_b97-3c_parallel
  N   -4.21231344494548     -1.83849441906827      2.01904103806840
  C   -3.50314908372501     -1.18305573900827      1.37000003598207
  C   -2.60646489921420     -0.43446591894290      0.57181560832105
  C   -1.33658769620944     -1.06165491456134      0.24374127559889
  N   -1.31669412160461     -2.45697187648416      0.21438255715360
  H   -0.47007506667076     -2.87000278093385      0.57320205436466
  H   -2.12609905971883     -2.88847030403343      0.63275843316925
  C   -0.23553392850822     -0.32722903619640     -0.08634478257452
  C   0.97514529788466     -0.95053206575751     -0.63026301162585
  N   0.83095501439207     -1.79858500978049     -1.66578179083643
  H   1.61813967470472     -2.32427160873310     -2.00966972433239
  H   -0.08550718070451     -2.16368641738683     -1.85732626663732
  C   2.22354580741372     -0.64911389693626     -0.10947162392687
  C   3.34007375833865     -1.33142791716311     -0.62036851587853
  N   4.24348201836476     -1.92858003405032     -1.05194820575589
  C   2.42524785452505      0.25114252589552      1.02838410982130
  N   1.78713684791625      1.35030832279921      1.30338004415036
  C   0.77232250079276      1.85642287642233      0.54219254736832
  N   0.81570158380184      3.25123134716765      0.45244256726670
  H   -0.08643173586648      3.70133548097996      0.48347972446893
  H   1.43368865273019      3.63164938948245      1.15200325263379
  C   -0.20320608713664      1.13405141414445     -0.07453728650900
  C   -1.21535451156228      1.74821730946249     -0.94969555468861
  N   -2.50773540557359      1.61333845262444     -0.80126046571867
  C   -3.06226128779601      0.77044499978382      0.08218725301855
  H   -4.06406649559886      1.05544502398964      0.38573926328636
  N   -0.77539151786357      2.48080299673430     -1.99171570203082
  H   0.17597411859188      2.80362054837591     -1.99231413824385
  H   -1.45072407497269      2.98346114967663     -2.54262454172239
  N   3.42641964772174     -0.09961023912204      1.88058305127070
  H   3.75447966952687      0.61701497436510      2.50400760184893
  H   4.08503543625534     -0.80863538985205      1.61330771768806
