29
Coordinates from ORCA-job ./opt_b97-3c_parallel
  N   -4.20463779878984     -1.71256114106842      1.89965401408585
  C   -3.41023848586475     -1.09656154938852      1.31484634355980
  C   -2.43059993207872     -0.36919721589829      0.59599236306699
  C   -2.70998655013256      0.93614801635545      0.26234944167244
  C   -1.95094607998919      1.83564176330232     -0.50928072834698
  C   -0.59926840933622      1.78908155330407     -0.76171478642227
  N   -0.02558278080255      2.65934032803820     -1.64064431342440
  H   0.95650763879184      2.85058234485889     -1.51542568341285
  H   -0.57569068410365      3.43087565290904     -1.97867865545631
  C   0.29851945236273      0.80933373373554     -0.13864986206375
  C   1.49070977611356      1.15986032863826      0.43585313836460
  N   2.41562627275096      0.32538817306429      0.98130951356160
  C   2.59987246306872     -0.91439688102131      0.60410229542627
  N   2.12906486823096     -1.58275511109764     -0.49276104010757
  C   0.91785617837578     -1.42130419213108     -0.92262552464501
  N   0.54064130825823     -2.04835892481725     -2.05668662122155
  H   1.24407806616385     -2.49030409926350     -2.62400656225007
  H   -0.34116716072685     -1.82076579586099     -2.47513947721719
  C   -0.10920316468917     -0.58815549963923     -0.25326235721168
  C   -1.29392184544127     -1.11254530625572      0.11369775713210
  H   -1.43316999852090     -2.18291218898255      0.01246048413197
  N   3.46648903971503     -1.65778522388968      1.34903791285486
  H   3.85753598164770     -2.47015040072832      0.90809232679743
  H   4.05646684141634     -1.15058854385362      1.98453811107490
  N   1.85484415314892      2.51388912951440      0.54654438605638
  H   2.65059098842223      2.59785408422890      1.16095188740476
  H   1.10198293186020      3.10589567467579      0.86787250337693
  H   -2.49920422763160      2.67598741232713     -0.92263228377144
  H   -3.68453700431826      1.29881236914425      0.56750354008235
