21
Coordinates from ORCA-job ./opt_b97-3c_parallel
  N   -3.32999286890709     -1.37686669786954     -0.63195996772564
  C   -2.31851481942281     -0.55097914266403     -0.22423030313545
  C   -2.65558924088327      0.76605882628431      0.11044151472521
  C   -1.79975832433464      1.79533989292394      0.46059388689147
  C   -0.41821404035939      1.87745752438771      0.42114820674177
  C   0.47332584497019      0.87831258756211      0.01734562409056
  N   1.61606107959433      1.23083140202056     -0.57184934001165
  C   2.70168714239631      0.51306060107308     -0.80792972608544
  N   3.19490052440956     -0.56047700647979     -0.21145429757696
  C   2.41916331090255     -1.24429380943213      0.64900232742207
  N   1.12640694469588     -1.31679434758715      0.77554779113875
  C   0.16424197853926     -0.54607133745090      0.19883482696545
  C   -1.04191435731804     -1.13630182280031     -0.09952822355378
  H   -1.01345554740259     -2.22068832473061     -0.09585580361385
  H   2.96890304120100     -1.89844745689537      1.32143444906817
  H   3.34216562158854      0.93930209696006     -1.57637084477641
  H   0.02143836626930      2.85818945784289      0.55184727219768
  H   -2.29762271679725      2.72186910650255      0.72341016038062
  H   -3.71104078565004      1.00970290671431      0.08507458732420
  H   -3.16767915299091     -2.36738156660626     -0.64399587747460
  H   -4.27783209100051     -1.10539847315491     -0.44192839279141
