30
Coordinates from ORCA-job ./opt_b97-3c_parallel
  N   5.33088722818002      0.09501627233035     -1.16578296368925
  C   4.21990845668439      0.07730084634187     -0.82965610173583
  C   2.86115228143076      0.02941872022174     -0.41981924192551
  C   2.48490553974685     -1.06739734675798      0.40169345789383
  C   1.22410538945635     -1.49858500014972      0.67293944633281
  C   1.07679761403539     -2.57256798747016      1.58570792365858
  N   0.93330170527064     -3.46621690307576      2.31448912961459
  C   -0.03433000096881     -1.01340040355363      0.06754021042463
  C   -0.94133954438444     -1.93598898946380     -0.31425858659536
  C   -2.28366609825374     -1.74140885339766     -0.79016370101640
  C   -3.08756950972648     -0.67444198552097     -0.48200113762131
  C   -2.77780221139143      0.42931117375353      0.34763538793574
  N   -3.82943214736187      1.12482112871978      0.82453660730619
  H   -4.76723089019427      0.80372360355716      0.68091691253642
  H   -3.69869422494991      1.97492491639449      1.34579636798351
  C   -1.48179243124368      0.92336258340909      0.62806168762590
  C   -1.42017511817462      2.06084421885819      1.45628394967226
  N   -1.45742835944334      2.96575379102414      2.18784121816035
  C   -0.25569165134757      0.43008516078174      0.07639364672354
  C   0.70776235664407      1.33218022095620     -0.39454984255654
  C   0.26337009107478      2.65116078956432     -0.69048413663089
  N   -0.07256856230857      3.71754981609401     -1.00236612712154
  C   2.05423982525809      1.09369651269472     -0.74894175883179
  H   2.52954401681397      1.89864512343598     -1.29195382983920
  H   -4.11352337360902     -0.72120860270114     -0.82838877165097
  N   -2.79593025467684     -2.79243414292614     -1.49062714763926
  H   -2.16383383636214     -3.44587895575520     -1.91571494503501
  H   -3.68153135868644     -2.69021200581979     -1.95226913996779
  H   -0.62938906639261     -2.97159343574864     -0.25533181006259
  H   3.29509995998195     -1.62369937189919      0.85370282854927
