28
Coordinates from ORCA-job ./opt_b97-3c_parallel
  N   -3.87483106490810     -1.78588528660713     -1.53843886656913
  C   -3.12458782336520     -1.02224798264564     -1.08631370048926
  C   -2.21255884176230     -0.07587763787124     -0.56463774753094
  C   -1.09236367569429     -0.60794369087737      0.17477114572995
  N   -1.26169020776373     -1.71388653333633      0.82992724837025
  C   -0.35887081313869     -2.52670439752646      1.39589774044307
  C   0.91911104062054     -2.77628060669726      1.00580820190178
  C   1.63858015259899     -2.04761917433114      0.01848394422186
  N   2.76225898567059     -2.61997320341841     -0.45910289693331
  H   3.33828130389954     -2.14996035157156     -1.13617204357611
  H   2.96461204966883     -3.58138382017080     -0.26336155579733
  C   1.30301923308070     -0.74748093953161     -0.40083732590865
  C   2.13924900867666     -0.17787094092174     -1.38148762855755
  N   2.85969408312778      0.20811003477711     -2.21065983891159
  C   0.20501786725689      0.06753193552170      0.07043638748195
  C   0.41167347221657      1.42225327872763      0.28806470166847
  C   1.74477340028776      1.83806917620215      0.52809420645020
  N   2.79436056437994      2.25945057502368      0.79709190139669
  C   -0.56566141850993      2.48830116244878      0.29685388115920
  C   -1.84843461852946      2.38833799163664     -0.22427444672571
  C   -2.51497569098133      1.26583563335146     -0.69392756347846
  H   -3.45890432320649      1.46978263186070     -1.18311021708293
  H   -2.39876131996948      3.31825583669021     -0.29612421548544
  N   -0.15590696291762      3.68807995230331      0.77749585711704
  H   -0.72197805493447      4.49971916086702      0.61180186929002
  H   0.81895548025900      3.85489416105160      0.96036901753510
  H   1.42676958170349     -3.61540752408950      1.46397948992866
  H   -0.76287150466663     -3.12321099326683      2.20676941185226
