23
Coordinates from ORCA-job ./opt_b97-3c_parallel
  N   -0.90080239780899     -3.29498669040304     -1.44896035886840
  C   -1.09403004148165     -2.24968282647521     -0.97665499284221
  C   -1.30155843045587     -0.97793344773891     -0.39175804182041
  C   -0.09959490615356     -0.18789441159982     -0.12672425170394
  C   -0.19788729394294      1.25879429750885     -0.26081477356015
  N   0.77326994017283      1.95785592016587     -0.88612761000018
  C   2.06703063387015      1.80127521429549     -0.82719064952116
  C   2.83908244665345      0.90803485724366     -0.08382873164188
  C   2.38219348238487     -0.32571769717434      0.36371181566896
  C   1.06262098683854     -0.83557467936965      0.18415679115540
  H   0.96507282059187     -1.90220112925340      0.34685551436729
  N   3.26290552022355     -1.17504887382157      0.95423654638623
  H   4.24411282840564     -0.96532347845621      0.93620212610042
  H   3.02277060515575     -2.14285590998069      1.06728421236873
  H   3.90182590144461      1.10762556299415     -0.02766595565222
  H   2.62172733546743      2.49613406613835     -1.45424665363375
  C   -1.27670355760945      1.98417020869823      0.22870866755250
  C   -2.49642895263980      1.53367911856992      0.73293695867409
  N   -3.12454257948140      0.37917479060804      0.60563354856477
  C   -2.60153393265064     -0.66920463114686     -0.04049983482458
  H   -3.33301624943176     -1.43460278176218     -0.28199871163989
  H   -3.07714104886263      2.28450023145545      1.26350260451456
  H   -1.11977194769757      3.05625092160713      0.24381489085908
