27
Coordinates from ORCA-job ./opt_b97-3c_parallel
  N   -4.16847120063256     -1.83516370766947      2.03218468825622
  C   -3.53470291024872     -1.12758605504703      1.36354493588053
  C   -2.73585405762757     -0.28683143252401      0.54574977268196
  C   -3.32350185161722      0.79821468047788     -0.03272002486698
  C   -2.72175304389537      1.76068473479347     -0.89608631831481
  C   -1.40516562566748      2.05786260855108     -1.00500951308942
  C   -0.29666487568697      1.42454967040953     -0.32854040436698
  C   0.77314578302962      2.17618200284671      0.04823144688640
  N   1.86190825063506      1.82577119125035      0.77205157389115
  C   2.44058337885309      0.66528256794414      0.73030607161308
  N   3.47037162664193      0.44772978920518      1.59045375899416
  H   4.08979174450699     -0.32976623813301      1.45008549754228
  H   3.84914765130285      1.25827201077309      2.04835896378495
  C   2.14010894629322     -0.42863010127140     -0.19956056084744
  C   3.20529867445326     -1.23610264000311     -0.63535225634191
  N   4.06849070510409     -1.92790027934565     -1.00116905895759
  C   0.86631885533696     -0.75930170566674     -0.61481640752153
  N   0.64594001248704     -1.80883560991078     -1.43029851301278
  H   -0.26512615939919     -1.93454584429763     -1.83007662435577
  H   1.41428095476996     -2.30660940486367     -1.84918757776458
  C   -0.33886653797242     -0.03821276731630     -0.15435764700983
  C   -1.39346698439929     -0.76222004199068      0.26455161803408
  H   -1.25366164666515     -1.82887596628962      0.39270423197538
  H   0.71648767349729      3.24162766107416     -0.15700196907525
  H   -1.15165934121957      2.90709391723836     -1.63225271332311
  H   -3.41295783328867      2.39243905817428     -1.43944968444870
  H   -4.37891971888298      0.93852526759176      0.16567161215483
