29
Coordinates from ORCA-job ./opt_b97-3c_parallel
  N   -0.29541413033891     -4.06443631300496     -0.40187043316899
  C   -0.47573310925482     -2.92065325706922     -0.28409824841505
  C   -0.81365035495568     -1.55219971279805     -0.20083773794268
  C   -2.17226871013642     -1.21671896782700     -0.51788694765368
  N   -2.86253566148744     -0.15203748809394     -0.15967171902083
  C   -2.39861142525457      0.96165908991934      0.40451537579194
  N   -3.37152911417806      1.71337658662710      0.97395766320202
  H   -3.18699015612178      2.65804273789773      1.26190512727455
  H   -4.31884995941519      1.46169786031485      0.75832057539049
  C   -1.07508985441932      1.47336083861117      0.39958655310034
  C   -0.94517028091038      2.83522954008962      0.72523036711087
  N   -0.88046424301876      3.96543623520415      1.00377724794754
  C   0.12122325220026      0.78158537083634      0.03390460490121
  C   1.20372625707793      1.50972768969880     -0.40759693098664
  C   2.54137628540223      1.09485644090614     -0.65254615797789
  N   3.19985927139775      0.05873219964984     -0.15824067293240
  C   2.58220652157717     -0.84579975398931      0.61715007198562
  N   1.32548659805139     -1.25756158371137      0.62120407026719
  C   0.22639693795021     -0.67998065750715      0.15931489516643
  N   3.40040292834909     -1.51151011081667      1.46741148337699
  H   3.06887493691847     -2.38073051405004      1.84473101149866
  H   4.38906070790580     -1.39337479176720      1.34327713094853
  N   3.28150305153518      1.90065108111224     -1.45426633643960
  H   2.93713497577988      2.80009737907244     -1.73219151557751
  H   4.27486828913831      1.75353514823983     -1.46651061255490
  H   1.00558374226130      2.54956022907006     -0.63325722634104
  N   -2.88562068666386     -2.13288043323360     -1.21128160004774
  H   -3.88247492679668     -2.01531513910493     -1.22939995261384
  H   -2.51231828809162     -3.05046068527629     -1.37892828318832
