26
Coordinates from ORCA-job ./opt_b97-3c_parallel
  N   -1.08117195537146     -4.07150858375998      0.51897851432326
  C   -0.99620306155880     -2.92807279791575      0.33887722760710
  C   -0.93204099957187     -1.52314344350095      0.14793711700333
  C   -2.03881191490556     -0.78323853450760      0.60444069618289
  C   -2.39216439869581      0.52181195331145      0.35627880472636
  C   -3.62675556894429      1.00094245730448      0.84451415438978
  N   -4.63757740946566      1.45107191248662      1.20246077168906
  C   -1.64132427954131      1.40179323787034     -0.52388025346507
  N   -0.35668062794998      1.33383736580433     -0.75199557716603
  C   0.53543330289669      0.41077909857701     -0.39977928612223
  C   0.24612616466777     -1.02505788541023     -0.43356051213432
  N   1.09176097064675     -1.87323188092721     -1.01157737681202
  C   2.39808357719235     -1.82152342139242     -1.05934434780998
  N   3.25963930732131     -1.13695946424285     -0.32036701788860
  C   2.96067533064594      0.02200555890931      0.25824602996224
  C   1.80325801081659      0.84939522625215      0.00464563008593
  C   1.93786284415356      2.22739430070797      0.27776596549270
  N   2.12739545431229      3.34334573452125      0.54508600774098
  N   3.90445386937251      0.50978418792620      1.07590159879167
  H   3.83928525605720      1.43198753021707      1.46932022022136
  H   4.78016956097770      0.01982826785731      1.12527645083205
  H   2.85412220552137     -2.52649045610568     -1.74705800731486
  N   -2.31025262044794      2.39419535916292     -1.13234635717237
  H   -3.28053610277146      2.56600410582754     -0.93859789457257
  H   -1.78337011289719      3.09538985716339     -1.62175099495154
  H   -2.75610330966072     -1.35385252513669      1.17865275276091
