21
Coordinates from ORCA-job ./opt_b97-3c_parallel
  N   4.82832140009247     -0.09588918028242      0.47607638434869
  C   3.67701827274422     -0.05117288210566      0.32785736866590
  C   2.27250254481986     -0.01090034139444      0.14437962775919
  C   1.67170127635711     -1.08849002595567     -0.58567306486624
  C   0.36137304939210     -1.41474752342137     -0.63556853019215
  C   -0.73794311004482     -0.73162328898016      0.01417635852436
  N   -1.72423633307001     -1.43706535595896      0.47043153426407
  C   -2.97465459570873     -1.03957291584147      0.78423190059763
  C   -3.66290461869063      0.02021810034662      0.26795778743948
  C   -3.10695038388222      1.07910822718682     -0.49110585070565
  C   -1.79492514269574      1.41421572031272     -0.61590014148445
  C   -0.67976387531639      0.73925827610041     -0.00764764057377
  N   0.33418119759652      1.44317242463978      0.40249059012752
  C   1.58793650607678      1.06293137510007      0.67242781604182
  H   2.14119871045881      1.76029592395927      1.29032984603378
  H   -1.53571873476871      2.30571234193301     -1.17330750346768
  H   -3.81628154152578      1.74766780162589     -0.96447731022956
  H   -4.73032685932633      0.04661203210528      0.44490871083291
  H   -3.50511241214029     -1.73789046252330      1.42162543163466
  H   0.07283591754438     -2.29725380791090     -1.19255500056069
  H   2.36044307488738     -1.74959487083568     -1.09541124708920
