21
Coordinates from ORCA-job ./opt_b97-3c_parallel
  N   -1.97283075455978     -3.09182649820869      0.34188638577662
  C   -1.64763336740098     -1.97715249496069      0.29767581389813
  C   -1.26983927332976     -0.61201304715908      0.25035029269296
  C   -2.30083074233945      0.32027989128784      0.63895729045782
  N   -2.43913698595394      1.57210768253814      0.35472870608142
  C   -1.55147308379718      2.28992898399118     -0.40315293576860
  C   -0.22576500535656      2.11609435205716     -0.57477363597452
  C   0.57694310062260      1.04786567301556     -0.00298507807849
  N   1.74522443700323      1.35769899102911      0.45202348744021
  C   2.80654274589210      0.59231034103118      0.77104727323126
  C   3.13339999122184     -0.61567647763421      0.23028338300309
  C   2.25671875533639     -1.42040417734065     -0.53394551300650
  C   0.90440735492792     -1.30886617057985     -0.65431257897313
  C   0.03970526234938     -0.31217707066597     -0.09155405131146
  H   0.40015161960749     -2.07768826887318     -1.22672466332172
  H   2.69997296443386     -2.28296964995835     -1.01694384257593
  H   4.13301965170389     -0.99054516881693      0.40679214764267
  H   3.50784582137344      1.07625273861615      1.44126167232228
  H   0.33037504921942      2.87372867063132     -1.11327711996459
  H   -1.99947982658195      3.17020178271627     -0.85147581180504
  H   -3.11343179637195     -0.11616294201588      1.21419263143361
