22
Coordinates from ORCA-job ./opt_b97-3c_parallel
  N   -2.04300041349603     -2.67466762442086      1.76678651781939
  C   -1.84458862244505     -1.68410472014845      1.19402534472707
  C   -1.62718471613770     -0.46255788477123      0.51109675586209
  C   -0.38102939641522     -0.30856256008297     -0.14829777411681
  N   0.38054426828544     -1.34365755210193     -0.41455506422089
  C   1.71238482474845     -1.29790074878068     -0.57808689156232
  N   2.60004851935532     -0.47141871734303     -0.01618671766993
  C   2.23588358368661      0.74230768252254      0.39160390791620
  N   1.21819869021082      1.51562561770016     -0.04006149482079
  C   0.05838188862782      1.07159272903750     -0.43879791384008
  N   -0.73139751409390      1.86121802541180     -1.17931906902510
  C   -2.02090002077838      1.99781371686312     -1.07096659958828
  N   -2.86304736835066      1.59364621331827     -0.10729679771039
  C   -2.63900734180353      0.51427111405656      0.61330823238759
  H   -3.40875685995936      0.30008013969787      1.34840950277579
  H   -2.48747255939945      2.59729265183517     -1.84686049682178
  N   3.06471765161842      1.34680041217721      1.26062216499977
  H   2.96385772094598      2.33174963687970      1.42164999471942
  H   3.92786206478139      0.89394324549319      1.49830828888273
  N   2.22728260977392     -2.30708641230412     -1.30321832089701
  H   3.22262135399603     -2.43520475363289     -1.30246194016934
  H   1.63547564564844     -3.08728380630635     -1.52335907544782
