27
Coordinates from ORCA-job ./opt_b97-3c_parallel
  N   -5.87702924741863     -0.73575803883266     -0.09447823266675
  C   -4.71959625002318     -0.64135669280666     -0.09291339559763
  C   -3.30393174262219     -0.53871486949802     -0.09855067028051
  C   -2.74881488427136      0.58196195057759      0.50993509592776
  C   -1.42484979231488      1.00428557503865      0.54405759149118
  C   -1.19893637577941      2.28703585088994      1.11336588249326
  N   -1.04135779941712      3.32911390332959      1.59996530555599
  C   -0.25782934119409      0.38027869198552     -0.00358918419219
  N   0.73741067548940      1.18411660161363     -0.30372740187279
  C   2.02813144107244      0.95530695102767     -0.51753919037395
  N   2.66170960891249      1.93675626232687     -1.18349503929136
  H   2.17561424298186      2.80683697293057     -1.30813930041829
  H   3.65835822641427      1.92051187026732     -1.30817455520850
  C   2.77986022421169     -0.15070518351248     -0.04302140661459
  C   4.17730398099032     -0.05885383876602      0.00225132462397
  N   5.34027562434918      0.01385796921929      0.03912068639109
  C   2.15380322811529     -1.34812834891419      0.38468929513623
  N   0.91663260921718     -1.75147943156751      0.09524360233276
  C   -0.17459462186705     -1.06958939530575     -0.19141599843692
  C   -1.24746370680027     -1.82100929280962     -0.73576536000777
  C   -2.59365833125908     -1.58557892434632     -0.71622188559806
  H   -3.20675249609762     -2.34889812970492     -1.17724258449952
  H   -0.93083548413662     -2.76901882867751     -1.15152564687201
  N   2.87764891251641     -2.24451110996013      1.07742575489538
  H   3.84601077602919     -2.08561417468281      1.29116020648723
  H   2.48985168401565     -3.15865567501946      1.22278763853854
  H   -3.45320714772384      1.26356100410606      0.96649171796591
