27
Coordinates from ORCA-job ./opt_b97-3c_parallel
  N   3.70516647138632      1.99270361686866      1.56067947896669
  C   3.00981784412135      1.18611940108108      1.09639207764245
  C   2.15823149116562      0.19553149790495      0.55635129930766
  C   1.01944735010190      0.65902477345019     -0.20877971651740
  N   1.12622138596246      1.75701784286633     -0.88170901756662
  C   0.16735596176511      2.51040510769486     -1.44339085530356
  C   -1.10733347922727      2.70205388027380     -1.01573435889572
  C   -1.76796714280277      1.95017213362050     -0.00247210307689
  N   -2.90015583222174      2.47896194157819      0.50057496544175
  H   -3.16568063675064      3.41927599727543      0.27942247473069
  H   -3.45031481007059      1.98475423504828      1.18209099496993
  C   -1.37304574823301      0.66330756486310      0.41101239277731
  C   -2.18660135366485      0.05104208935830      1.38549872972315
  N   -2.89283189127146     -0.36280559456719      2.21282788725466
  C   -0.23925736999392     -0.08893197105536     -0.06281220225749
  C   -0.32789874474615     -1.45686625723242     -0.24542372795122
  C   -1.60407902115432     -2.04054902098679     -0.41390043055469
  N   -2.60718766145268     -2.58553117308695     -0.63462813324923
  C   0.79947740924586     -2.37248232467334     -0.35200707461786
  N   1.98710569172307     -2.23372141726425      0.19791756744536
  C   2.49722904594028     -1.12968446707656      0.73655522705407
  H   3.38228902620834     -1.31125526068390      1.33655682101853
  N   0.59040610305968     -3.53000512532035     -1.00466056861963
  H   1.29680116222367     -4.24023700981557     -0.92664041788721
  H   -0.32269072699877     -3.79155396250582     -1.33184970915352
  H   -1.66746146698504      3.51151412951857     -1.46616326340256
  H   0.51889545636771      3.11231223736586     -2.27387871617842
