26
Coordinates from ORCA-job ./opt_b97-3c_parallel
  N   2.09311855444223      2.48046464295107      1.56498170038041
  C   1.88591467433446      1.47730430024635      1.01713114602129
  C   1.67855875142372      0.19681558738263      0.43973752469049
  C   2.80840789905591     -0.66872081640573      0.58079126508066
  N   3.09032934032015     -1.80576178015354      0.02082273857618
  C   2.23635677046807     -2.45841960744122     -0.80672101839482
  C   0.88927771286793     -2.37147670377138     -0.92909508975224
  C   -0.03672628415432     -1.46287080488851     -0.29509639343956
  C   -1.30620692087973     -1.90235258171919     -0.07108321741148
  C   -2.40882091133416     -1.16707012514668      0.47484652037003
  N   -2.66676193455750      0.11496098492320      0.38567603890827
  C   -1.88401230391555      1.01148082337064     -0.24301264964860
  C   -0.47619207917494      0.98487860447179     -0.41309325619724
  C   0.08714586269943      2.14726271990739     -0.97538772584996
  N   0.44700334513338      3.12064812024095     -1.50334306091032
  C   0.40220221501616     -0.08856517494613     -0.06578067564149
  N   -2.55975321628838      2.09872961947020     -0.65568340488788
  H   -3.52233512122377      2.17759661401982     -0.38362577124619
  H   -2.08186077615827      2.91130518283306     -1.00548711706597
  N   -3.36339870929597     -1.90724078237513      1.08919909907043
  H   -3.15054978966609     -2.83044708282200      1.41831765952485
  H   -4.10934176005009     -1.41041774825534      1.54413100742940
  H   -1.49329983850375     -2.95274688356405     -0.25696250167228
  H   0.42515738198964     -3.10259132111250     -1.58155816511765
  H   2.72188761065793     -3.22930081582691     -1.39672645732012
  H   3.58832217829301     -0.27524602668887      1.22659221270395
