23
Coordinates from ORCA-job ./opt_b97-3c_parallel
  N   -4.63371065486649     -1.02148001444571     -0.37453990187057
  C   -3.47560773176518     -0.93798927185850     -0.30645949884487
  C   -2.07546164108019     -0.76999684693688     -0.19944095807800
  C   -1.63807048714433      0.53369356694364      0.20256668850722
  N   -2.58275845025483      1.41867013042703      0.55671034754413
  H   -2.34224839660535      2.37675944472414      0.74646116057588
  H   -3.55817909330897      1.18932182751561      0.47039134672324
  C   -0.29310401664670      0.99383668961025      0.15796285872622
  C   -0.10421366783387      2.38665233918435      0.30405752402614
  N   -0.03091563123384      3.53539657378748      0.46650871227981
  C   0.84781095581565      0.24961927380969     -0.19338210428084
  N   1.85272566137145      0.84877354638647     -0.81307580992400
  C   3.13489497803699      0.55156712687270     -0.86695045413406
  N   3.88316660911158     -0.14925439252145     -0.02380203282186
  C   3.28483659549389     -0.98540118844210      0.82694325759790
  N   2.09950748620761     -1.54239756443925      0.76302614016944
  C   1.00425486629957     -1.18915454206830      0.09115463217674
  C   0.05225383356103     -2.13068872095790     -0.27382048241817
  C   -1.29905035094848     -1.90089674788460     -0.44640532539851
  H   -1.87709009950494     -2.77387491680732     -0.72105608169007
  H   0.38484112858835     -3.15990069443916     -0.29962515515764
  H   3.90306108289918     -1.33340329187345      1.64851381131131
  H   3.66999385110796      1.03602201521321     -1.67747368361954
