26
Coordinates from ORCA-job ./opt_b97-3c_parallel
  N   -4.56463721556129     -1.25113171489512     -1.70318019056182
  C   -3.67016159328879     -0.73022069557708     -1.17525589179941
  C   -2.57150980104991     -0.11473730317659     -0.52327856904102
  C   -1.63323255815259     -0.99003578462808      0.11646987263572
  C   -0.36834212428820     -0.71752709215895      0.50855443914945
  C   0.37433413721947     -1.71387160372418      1.29240163271111
  C   1.61621296626221     -2.16019148627835      1.03169033322166
  C   2.50569512824812     -1.69574847173356      0.01473908549392
  C   2.50020034103111     -0.45226600180063     -0.54482579265810
  C   3.55096751319746     -0.12862819962507     -1.44839153119046
  N   4.40292510468595      0.15852493037187     -2.18233187933681
  C   1.60198107386078      0.62898552242856     -0.22198171266184
  C   0.34108961066677      0.53862493156911      0.26211344840532
  C   -0.36868560703759      1.77132107662246      0.65204405349335
  N   0.37351604371264      2.67976726634460      1.35277086445565
  H   1.22466254547709      2.35786112629228      1.77723005723217
  H   -0.10671650867851      3.40569277837825      1.85604629906773
  C   -1.64198811610390      2.07374028340971      0.24444087657005
  C   -2.56123550118711      1.25610399503433     -0.43565715148915
  H   -3.41027788455175      1.76930310988738     -0.86848996380946
  H   -1.97487125191715      3.08787526708731      0.43622688430750
  H   1.98263974341161      1.61960620661147     -0.43475446510603
  H   3.31358727223091     -2.35914180078419     -0.26423121168703
  H   1.98703693068387     -2.97769607734249      1.63939548681575
  H   -0.15649327577477     -2.15534389702757      2.12901424572462
  H   -1.98806100059722     -1.99720983608661      0.30291849325656
