26
Coordinates from ORCA-job ./opt_b97-3c_parallel
  N   -0.81365988280122     -3.53472535207875     -1.25244293126899
  C   -0.36452992521933     -2.51126268830165     -0.93588867250832
  C   0.19831929023624     -1.26204935896719     -0.57185379973581
  C   1.57988289681135     -1.20243765326928     -0.46945442993921
  C   2.42387388241959     -0.19998736900028     -0.00335922189141
  C   3.78982216455220     -0.53143110572469      0.13699355299971
  N   4.92705678216752     -0.73542087713720      0.27630447339637
  C   2.06181078892554      1.14426453162246      0.32477935700883
  C   0.81531028580451      1.73076619452389      0.08910341423265
  C   -0.38854779551678      1.17879634197952     -0.32362717481113
  N   -1.27039822891950      2.00640084886739     -0.90368334258795
  C   -2.58520886739899      1.94473077575778     -0.94926964563934
  C   -3.46213796256434      1.14159287428959     -0.24386209422967
  C   -3.04703087339368     -0.00003113056984      0.45342411647254
  N   -1.88962084349683     -0.64500289633805      0.27864564762420
  C   -0.73364076813761     -0.24575255189491     -0.18130682371020
  N   -3.88246114789015     -0.60564902675762      1.33012757968788
  H   -3.68293241126853     -1.55728162640576      1.58322531195707
  H   -4.82600638102338     -0.28227058072688      1.43372320385549
  H   -4.51628911907443      1.38339386651632     -0.27437787909704
  H   -3.02903214818641      2.67982883913357     -1.61558647268658
  H   0.79187968404214      2.81374754114526      0.13118182117804
  N   3.03426199649042      1.94253820629640      0.82275120027310
  H   3.99134097376856      1.63541044294857      0.84295040109809
  H   2.86445168441164      2.92265665265823      0.94656505048909
  H   2.08497623596080     -2.12368105086604     -0.72713482436718
