23
Coordinates from ORCA-job ./opt_b97-3c_parallel
  N   -5.02740329768107     -0.47550666209903     -0.59703445944865
  C   -3.90343029118106     -0.25695937467285     -0.40306519622317
  C   -2.53107583196283     -0.00148133113118     -0.16151104636768
  C   -1.79841473056191     -0.95362151480578      0.61860821616337
  C   -0.45457983625948     -1.07639716782446      0.71693459561278
  C   0.57722982070061     -0.25634095880941      0.12433397017390
  C   0.29596188075021      1.17804001742596      0.08821386944900
  N   -0.80850175209282      1.69051476402526     -0.34836321704713
  C   -1.98043168782993      1.14233655232243     -0.68896211157753
  H   -2.57747964351193      1.74328794883684     -1.36409701761896
  C   1.26068044288154      2.10288948972079      0.65280632634487
  C   2.59344665254749      2.09678373780674      0.43310297379886
  C   3.36071489570905      1.13667031153367     -0.28613494365437
  C   3.00150572465888     -0.13323818727789     -0.59688050086470
  C   1.78398030552282     -0.80940859523511     -0.26285078362700
  C   1.84709808311431     -2.22787972438526     -0.33503954023813
  N   1.91401959011702     -3.38545541600596     -0.39713775443816
  H   3.75005937241620     -0.75345527520517     -1.07177908994389
  H   4.36983418052006      1.43113711795086     -0.54315539138063
  H   3.14758565271169      2.94406131536625      0.81974730872655
  H   0.82286686728689      2.93142565138965      1.19534566145563
  H   -0.08893132719326     -1.89872740826268      1.31962067717603
  H   -2.39090526596282     -1.70226594056152      1.12753913042861
