27
Coordinates from ORCA-job ./opt_b97-3c_parallel
  N   4.18195115183001      0.48117721132283     -0.77391871019040
  C   2.85065571634512      0.43194302736697     -0.35558335827841
  C   2.07915786462314      1.55843859254155     -0.41781131768548
  C   0.78539491522151      1.71230676683556      0.14702457362204
  C   -0.14052264061265      0.75451046809335      0.38570727003337
  C   -1.36773491305434      1.07895682241668      1.13748331737413
  N   -2.58002997882778      0.85636375096932      0.80075407805097
  C   -2.95341968043535      0.16816168920001     -0.33443461537829
  C   -2.31595024795290     -0.93951571233105     -0.82306823442698
  C   -1.02336984639318     -1.39735263748205     -0.46412268368644
  C   -0.00787136559187     -0.66803078584705      0.08182538975348
  C   1.24530608598637     -1.32074742204551      0.48427253057320
  C   2.48669126545919     -0.80822853875741      0.27116285650799
  H   3.32747261534525     -1.41876509888385      0.58633352354465
  N   1.10084159567492     -2.58347202531125      1.03206119378666
  H   1.88933033559087     -2.93890811925387      1.54797126227979
  H   0.22128789694100     -2.74522706794417      1.49325450866584
  H   -0.80985147181832     -2.43264958777800     -0.70346017981370
  H   -2.87510049121880     -1.56460231488412     -1.51130119274203
  N   -4.14212985327159      0.63513394611704     -0.86420756607910
  H   -4.63312419252362     -0.00293089351967     -1.46810672564785
  H   -4.73790473865115      1.07995173226909     -0.18466459381825
  H   -1.23555601628195      1.54340331620015      2.11565269390008
  H   0.49905339631760      2.72969353464752      0.40090277488978
  H   2.53592097953915      2.45049228330920     -0.83296248691387
  H   4.40298524140669      1.27233764277353     -1.35635743785193
  H   4.52072912365356     -0.37541532532322     -1.18185379126956
