33
Coordinates from ORCA-job ./opt_b97-3c_parallel
  N   -3.83995623551603     -2.10955099164780      1.75191175822295
  C   -3.04978197657245     -1.47420784028243      1.17630677008980
  C   -2.14367989400255     -0.66503788848401      0.46442648179701
  C   -2.57376038885473      0.61798364858030      0.12647307469110
  N   -3.79997682846351      1.05020832930855      0.56145903191981
  H   -4.20189492718024      1.84957464961582      0.10796806691936
  H   -4.46146462493004      0.36253922338725      0.88270875803527
  C   -1.85889000803107      1.53576035017209     -0.70189387400576
  C   -0.50823454310398      1.61631962735687     -0.87764875244935
  N   0.02877974783835      2.50577893458030     -1.77500107177028
  H   0.96498236915964      2.80988079073390     -1.55973238514505
  H   -0.57025164838587      3.24581916514418     -2.10405351944085
  C   0.45550479258745      0.75391777570343     -0.18072857795048
  C   1.50411933247863      1.27766358386062      0.51980366217812
  N   1.56284622692575      2.67266842597459      0.72348996223355
  H   2.29316122533121      2.94639526371485      1.35990850250539
  H   0.68151561907540      3.07504552472698      1.00794710232378
  C   2.59672066498560      0.52909479987442      1.05329934264687
  C   3.12863902080737     -0.62191939267289      0.53892975148341
  N   4.35183622582202     -1.08165013349786      1.02095489486961
  H   4.65060270745098     -0.66048835011450      1.88513450011574
  H   4.44149289671230     -2.08444160350386      1.04838596743172
  C   2.61124110058604     -1.38393516444554     -0.55707792541510
  C   1.31116671268730     -1.45808483295843     -0.95019437628886
  N   0.92071425174175     -2.33960259342773     -1.93251848515616
  H   1.63740534356076     -2.70521740839863     -2.53771434797436
  H   0.06150532455390     -2.11465648712040     -2.40304290034626
  C   0.22649021411092     -0.68788374117886     -0.32291562239075
  C   -0.93878717167407     -1.29206719740177     -0.00619307169290
  H   -0.98569045779275     -2.37121171009768     -0.09584191913884
  H   3.33169911488969     -2.01177495506631     -1.07100731875679
  H   3.12907194036765      0.98797492803352      1.88129977545367
  H   -2.47159522976444      2.26837914233155     -1.22029442599153
