32
Coordinates from ORCA-job ./opt_b97-3c_parallel
  N   -2.65805637477551     -3.64264356620071     -1.60394881218299
  C   -2.21237115301358     -2.67830588184951     -1.12665411310767
  C   -1.73391720563438     -1.48970907649390     -0.54002051787396
  C   -0.38483549095506     -1.49491951121901     -0.07745967465805
  C   0.42606006981087     -0.43256363845378      0.14458900363032
  C   1.73817486161950     -0.64970286011469      0.74327695643888
  N   1.80280816011199     -1.55825709176978      1.73442712019624
  H   0.95662437723630     -1.86189383182810      2.17889643954951
  H   2.67537196145799     -1.76511075050159      2.19198833383151
  C   2.89338907782159     -0.01684372083218      0.29814274000261
  C   4.09961661896688     -0.30960353045012      0.95542233210223
  N   5.09109822866630     -0.57789502831609      1.50717565089739
  C   2.96111888392384      0.75129345458896     -0.94488372485024
  N   2.06510820241315      1.56816078297504     -1.43043479099889
  C   0.86626578276703      1.80240771042918     -0.86024070756474
  C   0.06136192484675      0.96101447557304     -0.14975508661164
  C   -1.19231577030341      1.46762572912405      0.37956821469123
  N   -1.16598294753986      2.72565854703096      0.86137809689902
  H   -0.28295576120701      3.15436780574700      1.06503981961144
  H   -1.99515230826352      3.16070146650770      1.23087335631023
  C   -2.40021567306278      0.76574041946327      0.37741454711908
  C   -3.50563649154969      1.41529112933398      0.95781316839987
  N   -4.40473073762016      1.98541242146073      1.43235178364957
  C   -2.67216935917896     -0.47884806390712     -0.31225417544344
  N   -3.95495678315428     -0.67875434209694     -0.68054020308094
  H   -4.25198271480253     -1.58052987123643     -1.01153524889208
  H   -4.66824517259996     -0.01480740679461     -0.44026197147246
  H   0.46844633581136      2.78454576877632     -1.09819233227177
  N   4.11305164306096      0.64221576371104     -1.64352420779436
  H   4.26318259446489      1.28760965082809     -2.39808247154016
  H   4.89674428587472      0.12738449439088     -1.28722412992020
  H   0.04229773440639     -2.48127806887465      0.06099841623442
