29
Coordinates from ORCA-job ./opt_b97-3c_parallel
  N   -5.03939765526192     -0.39635337827827      0.27015377904679
  C   -3.87602885044387     -0.37346562763983      0.19600909194975
  C   -2.47334908784887     -0.35846757572087      0.10724352554015
  C   -1.89753604033913      0.80352546789457     -0.47319175670437
  N   -2.75082874766217      1.69721311087474     -1.02330880917370
  H   -3.74209118053310      1.59099545114460     -0.89896029045080
  H   -2.41779634553514      2.61187587013544     -1.27511870448490
  C   -0.52380912304394      1.15977196138764     -0.45469359751637
  C   -0.23259282640374      2.49559280088980     -0.81114401746307
  N   -0.08586569990817      3.59994819519890     -1.14696855427539
  C   0.58216151003534      0.41233493109309      0.02111641123516
  N   1.61395026606134      1.10011001517020      0.45752766503292
  C   2.86656486861645      0.67822128836491      0.68678396811328
  N   3.56915628081773     -0.27337298658185      0.08517909942834
  C   2.92979141867728     -1.23792686967820     -0.59296969488332
  N   1.68940254313636     -1.69832132789357     -0.47239867464790
  C   0.60779048860584     -1.06346186198046     -0.01472014842656
  C   -0.45539999864676     -1.84344289094855      0.40330106577275
  C   -1.80808752693946     -1.52828058762438      0.56244864920740
  N   -2.57877695106745     -2.48711553597929      1.14359060522694
  H   -2.18110023525366     -3.39222145722887      1.30949841341319
  H   -3.58069136078898     -2.44634030976504      1.07399575710232
  H   -0.19673655577902     -2.88662822908535      0.54005647411507
  N   3.70570755719622     -1.91557825647616     -1.47258141347924
  H   3.37152485501177     -2.79854736638613     -1.81141693423920
  H   4.69557377375115     -1.75477454093021     -1.44079644089776
  N   3.53230145649107      1.41563214309985      1.60588828421275
  H   3.14816363213494      2.31098672993662      1.84753762280865
  H   4.52729032322010      1.29425312000700      1.66139465893686
