25
Coordinates from ORCA-job ./opt_b97-3c_parallel
  N   -5.09119775140958     -0.13473797753381      0.87025888296390
  C   -3.94180591604439     -0.17909256501458      0.68921973469253
  C   -2.56064430795370     -0.18914904181171      0.41528995139046
  C   -1.74679381440993     -1.08136920622499      1.09786174359296
  N   -0.49963309155718     -1.43962838035984      0.85660159190581
  C   0.41459694022978     -0.79844759942389      0.14856633550471
  N   1.44275485680353     -1.48097063345886     -0.31927860197360
  C   2.67148977500756     -1.00910831405084     -0.48345373235478
  N   3.28668094526873      0.00848594512624      0.14083503285287
  C   2.64867314750240      1.10359640782296      0.52740122018958
  N   3.41318410897987      1.99180835816959      1.20563818328643
  H   4.40374733700859      1.83488991737943      1.24541570240765
  H   3.05788807923861      2.89373644502588      1.45761569913553
  C   1.31423376688023      1.49846851660563      0.22713852679837
  C   0.28324107198308      0.65826246471552     -0.10904871226196
  N   -0.82244350630671      1.13874492592188     -0.70176782933827
  C   -2.05920063506708      0.72137357022243     -0.58875357353244
  N   -2.95005802923100      1.24428854178644     -1.46312337416624
  H   -3.93501824112965      1.10176928391148     -1.32865564609956
  H   -2.65721077423302      2.03798114740166     -2.00337271435543
  H   1.09884632014094      2.55969854776254      0.21294798572209
  N   3.46804527110138     -1.73032637573139     -1.31021306349873
  H   4.45615564389054     -1.56438140979922     -1.25377409373061
  H   3.16017075997769     -2.65339021260806     -1.55717639178061
  H   -2.21572258316316     -1.62774723432757      1.91051369064460
