26
Coordinates from ORCA-job ./opt_b97-3c_parallel
  N   -5.41622773172463     -0.37085636956788     -0.66755742918621
  C   -4.28044118228324     -0.23677931644206     -0.46229720152808
  C   -2.89904991565466     -0.04988381062719     -0.20612227595705
  C   -2.53562322986560      1.08106699607581      0.59233033387167
  C   -1.31072497772022      1.61329003947609      0.78022802148716
  C   -0.02653011963128      1.26917851614787      0.19515856088555
  C   0.84339309852580      2.30316087001498     -0.02391476455787
  C   2.15930183977267      2.27609010076841     -0.53951237918675
  C   3.03642990453547      1.24724080888971     -0.60949295662131
  C   2.85421341026946     -0.05986156066041     -0.05246413953829
  N   3.99081312642006     -0.77950263367636      0.10955260223766
  H   4.87916620967225     -0.31601861932098      0.07638347504823
  H   3.96242343513258     -1.67222372616400      0.57271299791843
  C   1.62619573647337     -0.63070057995938      0.28378196100567
  C   1.68777413189860     -1.91153253701428      0.86509760809165
  N   1.81761816932921     -2.96612357948882      1.34426552675294
  C   0.28906492797511     -0.13362142932269     -0.04210249832243
  C   -0.62816171567965     -1.06931316278889     -0.47027211731963
  C   -2.01729989611356     -0.99968806385809     -0.65986750272911
  H   -2.45201464537610     -1.84643373506480     -1.17526135057607
  H   -0.20416143508462     -2.03217123058853     -0.72491499572315
  H   4.01702315210712      1.45044527145711     -1.02137354605634
  H   2.52723714630336      3.23163246278093     -0.89569172609635
  H   0.44150778774867      3.29440995430021      0.14773761089403
  H   -1.27152963732179      2.47816754437240      1.43255769396550
  H   -3.35723063530908      1.58198656366349      1.08851742793948
