26
Coordinates from ORCA-job ./opt_b97-3c_parallel
  N   -1.17393604521665     -3.49922989039314      0.82616032760580
  C   -1.10324941062223     -2.36653537625558      0.56756962679032
  C   -1.11017737752815     -0.98142962368194      0.31066826850840
  C   -2.33474533938691     -0.27139222189458      0.57118687935831
  N   -2.73152748741388      0.87246256802954      0.04293357848988
  C   -1.94859295925180      1.66705318494467     -0.70298278126888
  N   -0.64600134809724      1.89933417687332     -0.62002596690630
  C   0.24784885908017      1.07033550533360     -0.10689034343911
  N   1.32791095675202      1.56971972021672      0.45371633178333
  C   2.47637403539931      0.92265593328616      0.69010339400091
  N   3.05436237449829     -0.06424679280404      0.00583203196803
  C   2.31733731280639     -0.86808033162460     -0.76640621312056
  N   1.01976567147531     -1.16882668282369     -0.68209509525414
  C   0.06868463131107     -0.40284174850986     -0.18012971446122
  N   3.00376892941505     -1.56843642373990     -1.70058298991508
  H   2.56248053524961     -2.38795057211416     -2.07676759332089
  H   4.00528860231962     -1.56182833763151     -1.63256337298436
  N   3.20615299017902      1.42715525387654      1.71236965804937
  H   4.16324802885314      1.13477822798545      1.78727783924822
  H   2.95433082023892      2.33290243796063      2.06288979252734
  N   -2.61977538021842      2.43497179317527     -1.59669973197927
  H   -3.61826060447871      2.47923362899537     -1.50738493275946
  H   -2.14253240230572      3.23752535131418     -1.96501580133884
  N   -3.23410250810630     -0.86703354014912      1.38568742788832
  H   -3.10030062411056     -1.81898352310701      1.67766905095559
  H   -4.17002157634247     -0.50383843926641      1.37425903357228
