30
Coordinates from ORCA-job ./opt_b97-3c_parallel
  N   4.40928509257083      1.09990408610346     -1.09698898574394
  C   3.42405374568812      0.67387698956457     -0.64022253742233
  C   2.21927981971710      0.19399454080818     -0.09604573689036
  C   2.30851358280702     -0.96870390561205      0.78035105157458
  C   1.31976266316292     -1.89430283304942      0.95825327507956
  C   0.04017729493372     -1.90232580254871      0.35146029356272
  C   -0.68394080135127     -0.84307814520432     -0.09230178162040
  C   -1.94309363346637     -1.05643503111289     -0.81024502825159
  C   -3.07614638513538     -0.32921489922074     -0.59132971240985
  C   -3.24914218411771      0.63489071490387      0.46241994081606
  N   -2.37510954413957      1.45717038193370      0.97841349630976
  C   -1.09070373892360      1.53517396694516      0.54888095236937
  C   -0.27075208249788      0.55886996743299      0.07256274346263
  C   1.07100318213855      0.92203520906782     -0.37875780024435
  N   1.15946544727874      2.07415055870079     -1.08361863426887
  H   2.03705424235133      2.37135414142191     -1.47688819658532
  H   0.32059549929944      2.46413549764593     -1.47003147054723
  H   -0.65262312208917      2.51839587977277      0.69638850419541
  N   -4.54201878001898      0.78855669335540      0.90582545928290
  H   -4.62697764813169      1.37391538467712      1.72076333159141
  H   -5.13095235780844     -0.02579763637276      0.90285571364728
  H   -3.96287040308563     -0.57732426930836     -1.16497924226530
  N   -1.95333456146442     -2.11464217576628     -1.68201196992504
  H   -2.73347433244200     -2.19886505118385     -2.31194431680578
  H   -1.06568671076875     -2.38202234888100     -2.07038347431266
  H   -0.42734991267754     -2.87804602585370      0.26808655878849
  H   1.56808626239293     -2.75946680252074      1.56292394866183
  N   3.51904865120617     -1.12663018447995      1.42319350667118
  H   3.73884558029382     -2.05778593438303      1.73175489207076
  H   4.31154096877827     -0.63889547833520      1.04030031010877
