21
Coordinates from ORCA-job ./opt_b97-3c_parallel
  N   -0.64021450079949     -3.66421538141596      0.28878913465805
  C   -0.19299810070344     -2.59381069651844      0.23311503607944
  C   0.39003676565406     -1.30459353915302      0.19160357641610
  C   1.72052155553240     -1.19608568943888      0.66588389441594
  N   2.61118503466603     -0.25296970287521      0.52474746441680
  C   2.33537628229733      0.90126352572643     -0.15053062160912
  N   1.21747245241229      1.60430381667652     -0.20322808175428
  C   -0.01367939242029      1.14413418789731     -0.00602089948640
  C   -0.98839930039516      1.99501065616190      0.53264009411606
  C   -2.36014038676647      1.79174886820439      0.65476289612980
  N   -3.18440343094977      0.97374447230244      0.00994344550546
  C   -2.70191736311094      0.09748701978932     -0.87474907231123
  N   -1.53829435540427     -0.49218496476250     -0.91967208322551
  C   -0.40957215960107     -0.24227793219462     -0.26672159982943
  H   -3.40818175520597     -0.22874719392206     -1.63179573108794
  H   -2.86862064804432      2.47741061247904      1.32681112465264
  H   -0.59232914109138      2.89350238996079      0.98919444706355
  N   3.40948635889812      1.43897006352813     -0.74665140246295
  H   3.34156761318181      2.34513388353286     -1.17195684364482
  H   4.30645595718686      1.01014850638808     -0.61283051491182
  H   2.08929820916221     -2.07753572946689      1.18224403717186
