25
Coordinates from ORCA-job ./opt_b97-3c_parallel
  N   1.80223409550474      2.86610588396528     -1.55102159198748
  C   1.83035154697875      1.82441002861909     -1.03956577394564
  C   1.88551508718777      0.52435406497619     -0.47166462425100
  C   3.13191112201129     -0.14269357266807     -0.60741340739236
  C   3.56873921462457     -1.28137477942714      0.01198619386992
  C   2.81823287647300     -1.99466068896721      0.97310693216308
  N   1.52947987035693     -2.02793546946736      1.08571797147851
  C   0.61840182396748     -1.43567891768122      0.29493198262696
  N   -0.33538676825794     -2.17200700759512     -0.19667495032124
  C   -1.53151038456594     -1.79317495641560     -0.61970856137354
  C   -2.26265606588736     -0.67322308944344     -0.26751631536890
  C   -3.63325263844944     -0.66319828424172     -0.61313701115404
  N   -4.76785789581473     -0.61494125933731     -0.86152483273444
  C   -1.75553073980453      0.49408972630710      0.41211043571393
  N   -2.66019576677341      1.36479652412165      0.88291284142207
  H   -2.37253607526064      2.26058601844878      1.23983260605130
  H   -3.64224953826486      1.21853170762498      0.72512300029556
  C   -0.38391576765326      0.81873167232255      0.51028031927867
  C   -0.08736459563205      2.07089661624307      1.08751611325509
  N   0.07505026988386      3.09675269144221      1.61130356756053
  C   0.71227640968595      0.00803330685545      0.08997778296270
  H   -2.03231378950327     -2.51559627185541     -1.25396311392857
  H   3.36671130790059     -2.55880708699188      1.72221848435539
  H   4.60761255810417     -1.55578680255878     -0.10971191126930
  H   3.85814542528956      0.38567133422411     -1.21088305120709
