25
Coordinates from ORCA-job ./opt_b97-3c_parallel
  N   -0.60905267386075     -3.67795431414140      1.25718950552983
  C   -0.05694967571636     -2.70590100564310      0.93342995705301
  C   0.60250210782037     -1.52177712739730      0.53059863138664
  C   -0.23750608862043     -0.37114579206573      0.27344048170110
  C   -1.54578032117876     -0.56644384104708     -0.09320886035516
  C   -2.54978040194394      0.40613119421236     -0.38128340318121
  N   -2.65885790644362      1.65015921128565      0.06388337199031
  C   -1.72879006211884      2.16128248392197      0.88395932029110
  N   -0.46151021503338      1.93014289010910      1.02970675395060
  C   0.30781506791553      0.97701814316787      0.42295073836918
  C   1.56782567640328      1.38359452005490      0.05669104174291
  C   2.70483292539022      0.64828761166666     -0.34485347314317
  N   3.74373601687729      1.37646193720402     -0.85059889233106
  H   4.65617076141957      0.95924350119555     -0.88586133251054
  H   3.73299493040698      2.37451832432081     -0.74603588174218
  C   2.88261353360407     -0.72735138800067     -0.20307760180574
  C   1.96200533548204     -1.64134674103147      0.27332422646904
  H   2.35454401598000     -2.63862404236803      0.42986524334473
  H   3.86169659655684     -1.11990884499246     -0.44813751127458
  H   1.70696504844146      2.45505504709922      0.14775721003924
  H   -2.10812143139279      2.96061787139990      1.51682908956575
  N   -3.57382610074818     -0.00619825821074     -1.16703626749404
  H   -4.38177563418333      0.58872948381686     -1.21768784969078
  H   -3.68402178213967     -0.97446744756566     -1.40303365141767
  H   -1.83572623521351     -1.59372149608581     -0.27428844488821
