25
Coordinates from ORCA-job ./opt_b97-3c_parallel
  N   -1.19259183744102     -3.71750763159082     -0.51238069494424
  C   -1.15617276919021     -2.56671037584782     -0.35731896853832
  C   -1.18603633376988     -1.15395308363756     -0.22033841110068
  C   -2.42591252240158     -0.54502175106388     -0.53492307175653
  C   -2.86617206424736      0.71973448604668     -0.31651539072715
  C   -2.13158213090874      1.80880603160069      0.23372417898057
  C   -0.76736722752453      1.85504123182243      0.44180867442031
  C   0.23665910901212      0.88173171522414      0.21753794795878
  C   -0.01805067611123     -0.55667868143034      0.27156755486684
  N   0.87838889255197     -1.37647570043572      0.84278820575445
  C   2.18129449272427     -1.34366392708672      0.86535685821023
  N   3.06525045488064     -0.60131908979790      0.20442260143729
  C   2.72586066482821      0.61178261861615     -0.24247933193860
  C   1.52393144107460      1.33418499086359     -0.05384521894932
  H   1.59789584018131      2.39784658390913     -0.24987953011979
  N   3.72859285664211      1.24526920617086     -0.90200107149766
  H   4.63993893430387      0.82532760036255     -0.85714263306991
  H   3.66629051168575      2.21951976752516     -1.12905324158562
  H   2.63031274366341     -2.10396903137736      1.49930927322689
  H   -0.38044168581817      2.82696077143119      0.73066960566131
  N   -2.87344932195946      2.91838543662799      0.55239971914294
  H   -3.78417615588750      3.01188260146124      0.14049165554686
  H   -2.39284502673338      3.78729592297845      0.70214767389259
  H   -3.90393383825551      0.91660999919731     -0.55563039784013
  H   -3.15719958859933     -1.22788545906850     -0.94786369883230
