24
Coordinates from ORCA-job ./opt_b97-3c_parallel
  N   5.09787678953004      0.55924734871995     -0.80226103368133
  C   3.98456675380553      0.36935227298674     -0.52569422056480
  C   2.62650706364509      0.15614376576399     -0.18705805336924
  C   2.06950810647543     -1.07679044209816     -0.47555446876493
  C   0.80126320677354     -1.55868439014303     -0.16527508348631
  C   -0.33045312791809     -0.90899258634525      0.30823484930309
  N   -1.31715568897659     -1.71341313490132      0.78798584017086
  C   -2.60127349823323     -1.61324826825326      0.60516675803112
  C   -3.34941371270971     -0.66240157313112     -0.09823651122406
  C   -2.92869990325163      0.64304264892108     -0.30838871527051
  N   -3.80361075790918      1.53180349067370     -0.85973560826096
  H   -3.61350057272963      2.51485068260502     -0.79609322572158
  H   -4.77252791185922      1.28156830807005     -0.93608397638700
  C   -1.66045698243860      1.17465470361753      0.06410680595354
  C   -0.47980793524590      0.53681765381572      0.35394861269272
  C   0.64002046894936      1.35590391910881      0.76563708337671
  C   1.96037367737525      1.21022424759252      0.50313919357524
  H   2.59975138681387      2.01892214111940      0.83489124525914
  H   0.36137566427435      2.26718124237558      1.28224032328066
  H   -1.60016425875178      2.25756736706590      0.04857547422991
  H   -4.38704185333456     -0.90164534580405     -0.29489791834150
  H   -3.17699654255079     -2.40342819513661      1.08427202989120
  H   0.66020839463198     -2.62590834611920     -0.28527841664532
  H   2.73528159403481     -1.79586672790411     -0.93600128244684
