25
Coordinates from ORCA-job ./opt_b97-3c_parallel
  N   -4.07930901632747     -0.21190025451934      1.64899420263777
  C   -3.06673343275524     -0.49630768213692      1.15584307911321
  C   -1.82614916669003     -0.83596710036421      0.57236503292813
  C   -1.36830151102518     -2.13056170281846      0.67152665293505
  N   -0.34113336524492     -2.72754678875035      0.06294077932520
  C   0.72515143632252     -2.16069723435900     -0.44642080645137
  C   1.16833835526139     -0.78104384625080     -0.22363262909299
  C   2.56355304073707     -0.56153309124937     -0.29362020026525
  N   3.71173665163250     -0.45615492308898     -0.43763052738204
  C   0.32249394067398      0.27565019203178     -0.01315741469902
  C   0.78914418092117      1.55219484215420      0.50831266515427
  C   1.72900713451055      1.48616350476631      1.56677525429331
  N   2.47921788416279      1.43461352587742      2.45192272950883
  C   0.38136355199121      2.80204440804678      0.09360791442534
  C   -0.56754409855017      3.11409782586527     -0.88818839217109
  C   -1.48782810806614      2.23270484722396     -1.39440775487019
  N   -1.81351765722306      1.04504891481130     -0.87645211738004
  C   -1.13625712931348      0.19801268018918     -0.17656362893064
  H   -2.11895702794218      2.54348145256703     -2.21874469151910
  H   -0.60034480157987      4.13424480150081     -1.24553328009794
  H   0.90236269388915      3.63343498645483      0.55047281932174
  N   1.53724335370041     -2.94891640654918     -1.16974676182386
  H   1.33886113240255     -3.93403826687857     -1.18937591009711
  H   2.43967344160602     -2.63306531582477     -1.47813266648153
  H   -1.98370320539336     -2.81103996949867      1.24930640261911
