26
Coordinates from ORCA-job ./opt_b97-3c_parallel
  N   -0.71065197392045     -3.20402286823927     -1.83878498773490
  C   -0.13821701254020     -2.39267538330286     -1.23400986830420
  C   0.61070498647716     -1.39494790011885     -0.56680952718591
  C   1.90720213057943     -1.74028985074802     -0.19356180436924
  C   2.89460606394192     -1.00030381054255      0.42270005850705
  C   2.93881258084763      0.38892372383663      0.56574254105184
  N   4.02014967106999      0.93346579138737      1.19064021783741
  H   4.18452374696622      1.92082181345607      1.12173286669986
  H   4.83334085406487      0.36759178315405      1.35149079005483
  C   1.99823771121320      1.29327448873088      0.02647246342136
  C   0.72247714531077      1.08481879554455     -0.43383888985557
  N   0.16183555040306      2.09799346209687     -1.16147791722236
  C   -1.05458939912805      2.53243857322428     -1.08372046447250
  N   -2.04499470936867      2.26182446473805     -0.22174335316055
  C   -2.16612575021009      1.09149164925038      0.37157917272567
  N   -3.18718169650201      0.98592368083538      1.24162973764506
  H   -3.83665237480545      1.75110050597226      1.28061211294617
  H   -3.46180881661746      0.09809717831181      1.62358558749949
  C   -1.37060301065138     -0.11015232082427      0.13848373128709
  C   -1.97893823872458     -1.30951667119798      0.56722208556959
  N   -2.54467266437805     -2.22157867088619      1.01657971131428
  C   -0.04045520922933     -0.14605895340939     -0.27110047801825
  H   -1.30552878551655      3.30531726313686     -1.80558349519743
  H   2.32788126128694      2.32065326873716     -0.08124422377300
  H   3.76303380571550     -1.55146268750956      0.76153535521942
  H   2.15659549541584     -2.77815160353353     -0.37539051708515
