30
Coordinates from ORCA-job ./opt_b97-3c_parallel
  N   5.59564194204423      0.08624775804491      0.23759817600619
  C   4.43521313285438      0.12456083716557      0.13225909558301
  C   3.03989198329930      0.17500015177903      0.00541470012883
  C   2.38865975066633     -0.80430063856606     -0.79627732235783
  N   1.11362185550327     -1.15490949272293     -0.71970509072295
  C   0.09175793622055     -0.48599523617086     -0.21823192863417
  C   0.11144265526045      0.99293366516702     -0.17242747906010
  N   -0.84658514269820      1.70727055223340     -0.74005366681799
  C   -2.13614376591976      1.45206804459613     -0.77538118481442
  C   -2.84799835915451      0.51730211856507      0.04752035579700
  C   -4.21514885452909      0.75999541522584      0.25382102256920
  N   -5.35306193801256      0.94883301324047      0.42247967159252
  C   -2.32088718354849     -0.68966873464147      0.55339834129166
  C   -1.01070427023610     -1.19728407700287      0.27616396900164
  C   -0.80799157772967     -2.57325411827950      0.51821142857427
  N   -0.71460570605552     -3.70682623504376      0.76149116450100
  N   -3.13425754290948     -1.47699202967073      1.28444089574492
  H   -2.84277085095672     -2.40612901837973      1.53354601997512
  H   -4.11481275338391     -1.26750516480312      1.35397696120253
  N   -2.85630217172605      2.22329990983127     -1.61970653136771
  H   -3.85998557647321      2.20090076165863     -1.60547911920911
  H   -2.40931364358038      3.04155632455005     -1.99205596347098
  N   1.10627731630322      1.62943093112520      0.39794136688251
  C   2.33116065551946      1.19548688119365      0.68711251227096
  N   2.95462039736566      1.88421566634719      1.66560415342553
  H   3.93040582194814      1.73769836136492      1.85355674774910
  H   2.54127089403882      2.75136235684534      1.95678477692062
  N   3.12618892770834     -1.52802370321506     -1.66618633864201
  H   2.72115838713875     -2.38118633582672     -2.00805763142483
  H   4.12806184174323     -1.45406532091018     -1.66486573099347
