27
Coordinates from ORCA-job ./opt_b97-3c_parallel
  N   -4.86866612235509     -1.38145585369407      0.02468523620210
  C   -3.74693554989344     -1.10443847797698     -0.11330795164500
  C   -2.39935196327560     -0.71196903526166     -0.23979640490390
  C   -2.04627383578809      0.56153296549969      0.26531274680727
  N   -2.98857652153558      1.27196618916890      0.90491007596972
  H   -2.82655152638113      2.23178999044571      1.15663671426930
  H   -3.92993221850324      0.92343796955901      0.96929722980372
  C   -0.78082987374638      1.20369301862187      0.04541798913706
  C   -0.75045160816602      2.59695231618909      0.28739492759924
  N   -0.81469259785854      3.73343316561814      0.52480651982698
  C   0.44781454412691      0.63577162482553     -0.32095194166274
  N   1.43034192566907      1.47845356112259     -0.65237080621984
  C   2.69843306333078      1.43721392497811     -0.33717313511143
  N   3.47910531865480      2.40381554333224     -0.86633127585126
  H   3.06445928803244      3.05142810747027     -1.51306114948195
  H   4.47833781345286      2.33608521998976     -0.83433747217051
  C   3.31705050791170      0.51041200501651      0.56780367470138
  C   2.87243953344766     -0.75201436712034      0.77648207174444
  C   1.73792843118370     -1.40949667393470      0.21907047030232
  C   1.72480662764097     -2.82320816514004      0.32799551739148
  N   1.76197847908702     -3.97761335247445      0.44786668891421
  C   0.62906508082761     -0.81264836100228     -0.37888759647439
  N   -0.25419027486013     -1.59432396899456     -1.02314872987793
  C   -1.54942729484578     -1.54183623794789     -1.00076528511880
  H   -2.04546840929116     -2.27582974687937     -1.62851890779147
  H   3.49861472227694     -1.38453833878785      1.39226993747884
  H   4.25145026715777      0.80778563237676      1.02463660276120
