26
Coordinates from ORCA-job ./opt_b97-3c_parallel
  N   -1.80551252208268     -3.36079507756946     -0.61753565446778
  C   -1.50423329696753     -2.25093572839634     -0.42930643218495
  C   -1.20758759884436     -0.88859207239654     -0.22894601419899
  C   0.13091341959955     -0.57245859156023      0.12825608869470
  C   0.93693563298371     -1.56579103304928      0.67587190982431
  C   2.30078589947872     -1.54492503963917      0.98678056748143
  N   3.28052658809318     -0.76753962134415      0.58991415829551
  C   3.01721294044341      0.23660651800925     -0.29305319176485
  N   1.94306605955610      0.97054700400752     -0.46023993075432
  C   0.67922162843712      0.78093414225467     -0.04508124350010
  C   -0.06110991864285      1.92494615015683      0.17775486451893
  C   -1.44671128106256      2.07261533522966      0.37871105151238
  N   -2.44699770774573      1.25266274271657      0.07520278260289
  C   -2.32652096662360     -0.00454981021275     -0.33474458805888
  N   -3.47210628519949     -0.50743844284874     -0.85326005134182
  H   -4.30245674262532      0.04088017445261     -0.72212005821271
  H   -3.57345392089886     -1.49217840244674     -1.02462859801948
  N   -1.86615349113549      3.26062596703167      0.89000430979276
  H   -2.84201449165337      3.48064073106891      0.80403539663610
  H   -1.22177794299220      4.02005673478328      1.00211270010125
  H   0.52434900084144      2.83557171064515      0.17429678639109
  N   4.08184173375224      0.55203193333254     -1.07033606140116
  H   4.96912864244593      0.15528786236306     -0.82269789749078
  H   4.06036493672902      1.41320180131055     -1.58399581828167
  H   2.62626806437787     -2.35335197118942      1.63764988977514
  H   0.42788824753941     -2.46940307521053      0.98420429404895
