28
Coordinates from ORCA-job ./opt_b97-3c_parallel
  N   0.87505188044577      3.86694769754727     -1.26193967213299
  C   1.00017439316402      2.76331203681269     -0.92004438413799
  C   1.14587740974058      1.41519934666531     -0.50354862246736
  C   2.45164682674437      0.96562862910904     -0.41565665923465
  C   2.97954502979290     -0.24329520558005      0.03292137699942
  C   4.38147960290131     -0.32354059926247      0.17737466268008
  N   5.52798233720501     -0.46194284334126      0.32044968246693
  C   2.24229330424560     -1.42690347594976      0.31630534568614
  C   0.86824522590743     -1.60493537475519      0.09180611262759
  C   -0.15340766322191     -0.72158505755142     -0.20851151146590
  N   -1.28228790440914     -1.30337997736098     -0.67057725365891
  C   -2.53992632941508     -1.08353119674937     -0.43193886831414
  C   -3.07777613585710     -0.09263098973864      0.48662710047905
  C   -4.40649102089859     -0.25164639000491      0.92620273139706
  N   -5.50889567600565     -0.43093400963124      1.25359282208947
  C   -2.40717428083927      1.08219065153665      0.74146601658121
  C   -1.13196942040277      1.48505764981115      0.33903001871377
  C   -0.06360246236288      0.73371833082378     -0.11914365487829
  H   -0.92835812848202      2.53610859960609      0.49146500034123
  H   -2.96888713391081      1.82671819285922      1.29125216291067
  N   -3.43031225667191     -1.85145607179695     -1.09204221233363
  H   -3.08774627667863     -2.53582112305600     -1.74100408828965
  H   -4.41719764429718     -1.67875335950908     -1.03876905167127
  H   0.53307964052026     -2.63506984133637      0.10813695155817
  N   2.93022275622676     -2.50267305928904      0.74944137980733
  H   3.93122739296321     -2.48078980584437      0.83873482353465
  H   2.46524756691769     -3.37421452018228      0.91814336254446
  H   3.19676561167802      1.70250715866821     -0.68380158433244
