27
Coordinates from ORCA-job ./opt_b97-3c_parallel
  N   3.91612590708792      1.28045264625518     -1.90805606249764
  C   3.04608087381775      0.83796143913801     -1.27195649703830
  C   2.03170339355937      0.25615182510819     -0.48671862630056
  C   0.88017769279507      1.08015003586747     -0.16869717401465
  C   -0.36605701184017      0.66244349909367      0.10602518177649
  C   -1.39043544978349      1.63270645881996      0.56459247332756
  N   -2.56787932574983      1.77038215087089      0.03448012222503
  C   -3.06010810664348      0.91850413954668     -0.89554030634199
  N   -2.91118145393634     -0.35835175177823     -1.05638875112075
  C   -2.03733392008766     -1.12774171925145     -0.32932064222307
  N   -2.43309507732235     -2.44625528786087     -0.30480028660646
  H   -1.99716928822414     -3.07384178784412      0.34569742465320
  H   -3.41694437290974     -2.58951559671429     -0.45072165789971
  C   -0.81986052352469     -0.72904409864204      0.18351570901796
  C   0.02042361304210     -1.64558255317633      0.91252026976696
  C   1.36528122546692     -1.72101587496108      0.90319928316884
  C   2.28207573831936     -0.99322034108324      0.04685585852747
  N   3.49077429553119     -1.60093368615504     -0.13044990498881
  H   4.12326791027879     -1.21438862676869     -0.81201892782920
  H   3.53447581170897     -2.59874635602119     -0.02723555850770
  H   1.83086989578884     -2.45739554727818      1.54819903375819
  H   -0.47742107849905     -2.35503003878046      1.57368410731643
  H   -3.78757361853455      1.38055475663689     -1.55734384980032
  N   -1.04678589341407      2.43778304109301      1.58888842794369
  H   -1.74481244070363      3.03942312312518      1.99165089321337
  H   -0.18350417440468      2.29376853879081      2.07643768561688
  H   1.06658246026003      2.14823188756649     -0.16920793905279
