25
Coordinates from ORCA-job ./opt_b97-3c_parallel
  N   -3.74187932156145     -2.14868570654876      0.71577532433900
  C   -2.82880482375902     -1.48492931099373      0.42774384198431
  C   -1.75870647389484     -0.63411113801898      0.09040106304090
  C   -1.96903703723304      0.74182050151310      0.23040503562911
  N   -1.21164496733274      1.72519535400685     -0.31775456734088
  C   0.06707622619976      1.70144140013101     -0.50927506271672
  N   0.62910419299698      2.72881180228598     -1.18666808095005
  H   1.57915017377986      2.65059574402077     -1.49685325722321
  H   0.02393744155528      3.37286331307634     -1.66697669417602
  C   1.00088338300619      0.66293910394414     -0.01390131118174
  C   2.09578826194931      1.00191947021025      0.71384475471331
  C   3.08013859326643      0.08923454186940      1.19642859342321
  C   3.37415488881206     -1.12237247655047      0.66142246650662
  N   2.95989654165735     -1.60305525365489     -0.55562283317947
  C   1.81444519919328     -1.38702036667281     -1.07413396512973
  C   0.67597318530120     -0.68679733908835     -0.43896577867249
  C   -0.56162803189737     -1.23018228795671     -0.41494691066217
  H   -0.66051776223967     -2.24940726821989     -0.77058119943871
  H   1.67503339866297     -1.72962879366174     -2.09923858613489
  H   4.14033834429102     -1.72887217725458      1.12888371678262
  H   3.68818903815490      0.41915968079763      2.03030711149191
  H   2.20602966520271      2.04116582255229      1.00231095820168
  N   -3.07465974251326      1.21218281360247      0.86921247998709
  H   -3.81746703360274      0.56925113913973      1.08608878309812
  H   -3.34662301269392      2.15248211997237      0.64486037510687
