26
Coordinates from ORCA-job ./opt_b97-3c_parallel
  N   -4.17981042899664     -0.52259549674721      0.83502585605209
  C   -2.96988834389355     -0.09985691855067      0.32483553848775
  N   -2.60378724674965     -0.84328289814478     -0.78521089114052
  C   -1.39915139069186     -1.13627699291643     -1.09960183641351
  C   -0.15985812456450     -0.79421112066873     -0.39615083069750
  C   0.80842815646468     -1.73440682898460     -0.22233335705592
  C   2.08921708920975     -1.55736319333723      0.34858107751451
  C   2.76619488086463     -0.36646158865746      0.43928753973646
  N   2.46383048996286      0.80290486088431     -0.20342606582864
  C   1.27516300017202      1.22725476593272     -0.47667209004835
  N   1.17160554707520      2.38638399765143     -1.18797115500943
  H   2.00728878840311      2.71872151987232     -1.63938791889576
  H   0.29799327719984      2.58355009703098     -1.63995477318288
  C   -0.00931643626888      0.61772072762649     -0.05895317095945
  C   -0.98961127374611      1.39045419108805      0.47640246934265
  C   -2.30711854218280      0.98562963835397      0.82224751882711
  H   -2.84957875403388      1.62632497403594      1.50914888060462
  H   -0.73938550739159      2.42225233003572      0.69704542327709
  N   3.94952851858598     -0.27498774052359      1.14634868562783
  H   4.57346140081766      0.43720167998219      0.80505610209612
  H   4.40551268829305     -1.14445261826332      1.36503529536847
  H   2.59893168563783     -2.44607098064874      0.70193464848223
  H   0.55527896440012     -2.74871313197369     -0.51687033314266
  H   -1.29457407422169     -1.70687474278241     -2.02410358722452
  H   -4.65612338162155      0.11851332598405      1.44644705256621
  H   -4.77883753962435     -0.96421868057931      0.15721614991640
