24
Coordinates from ORCA-job ./opt_b97-3c_parallel
  N   -4.13155655599115     -0.61076559560017     -0.17979170812600
  C   -3.05134924646153     -0.18539736144696     -0.14656136069023
  C   -1.74887235536479      0.37294954692363     -0.13684361471524
  C   -1.61424665814987      1.68553749867799     -0.68642648096711
  C   -0.60732218464704      2.57554933574028     -0.53325895851581
  C   0.54238765278293      2.36195637461217      0.30981431482117
  N   1.09238058951322      1.21300922505273      0.59484080912923
  C   0.67336527600247     -0.00556624046143      0.22691356066594
  C   -0.72158533012406     -0.41139397979728      0.36765566985074
  N   -1.01537423074091     -1.54508155508302      1.04618088035832
  C   -0.55120982948200     -2.73415059147861      0.84418971005548
  C   0.42522732916139     -3.12946389562916     -0.10170359431277
  C   1.40530234227246     -2.29735262681997     -0.56067165165166
  C   1.60729644840300     -0.92052728265089     -0.27933209700090
  C   2.87912819675308     -0.38905524193274     -0.61568343357413
  N   3.92922581208750      0.01413902013076     -0.90438878579048
  H   2.19342716027402     -2.75477526124687     -1.14510317978530
  H   0.50230598322986     -4.18379689193956     -0.32880085878607
  H   -0.94747788611482     -3.50181046707482      1.50401776817834
  N   1.14498077289443      3.46127514067780      0.81266968564244
  H   0.68618886500681      4.35196907212305      0.80563319382490
  H   1.93356240766664      3.33436958133135      1.42234201432322
  H   -0.72141030401822      3.55687856148117     -0.97431554737189
  H   -2.47657744445348      2.02818674271055     -1.24382897456280
