26
Coordinates from ORCA-job ./opt_b97-3c_parallel
  N   4.08739330055480      1.04984978962788     -1.29308397807661
  C   3.13348944573839      0.52143892114293     -0.88691860375791
  C   1.95646792777308     -0.06990039697008     -0.37167347803729
  C   0.93847554439134      0.83279367426819      0.14451624692437
  N   1.36870216422870      2.08631354878693      0.55353065801627
  H   0.70181083643548      2.83099624296499      0.44075241854257
  H   2.28920047134499      2.35411830907363      0.24619425963050
  C   -0.36758781974419      0.48618278779291      0.30071883027026
  C   -1.29278066738586      1.37411360292728      1.04124934624468
  N   -2.36266214577472      1.90573065303356      0.58909140761822
  C   -2.88021822348766      1.60820461444622     -0.64882682205453
  C   -2.89755882859157      0.38007846609441     -1.22850131671831
  C   -2.18680340410077     -0.77322472196393     -0.78464716091988
  C   -1.01312266772751     -0.75576562943232     -0.09367517754430
  C   -0.40736318136371     -2.00646145360740      0.38457196718913
  N   -1.26657472005637     -2.94351001365269      0.87377355897304
  H   -2.18473189229491     -2.63987925569501      1.14340999080729
  H   -0.89661949999120     -3.72211872258452      1.39149510676265
  C   0.92929810124623     -2.28291771037064      0.24426024406154
  C   1.92950246943818     -1.43920982491431     -0.26665848607495
  H   2.83840132777172     -1.94283075206191     -0.57262985956417
  H   1.24642693392454     -3.29239623464935      0.48106301871111
  H   -2.58731328449833     -1.73668505071991     -1.07835122705820
  H   -3.57869761690980      0.24269349752568     -2.06033019901118
  H   -3.48356245192146      2.40006139831298     -1.07557543421796
  H   -1.05288954939992      1.56760823361885      2.08749918948012
