33
Coordinates from ORCA-job ./opt_b97-3c_parallel
  N   -4.91399982180133     -1.63342705096824     -0.50942173098461
  C   -3.94765389384261     -1.08616179559251     -0.15891269784440
  C   -2.73536176922855     -0.46999349382360      0.21734470966510
  C   -2.77512962756388      0.44797595402619      1.32055466699622
  C   -1.92959148844746      1.45908441930457      1.62146243601670
  C   -0.82264887261184      1.90562698823611      0.81681302956040
  N   -0.57630500099347      3.28434281100167      0.81850694897514
  H   -1.04154968184359      3.77945653141626      1.56073622623256
  H   0.39835279177715      3.53783477351457      0.77536711779780
  C   -0.11511961065199      1.07496048274985      0.00780716086425
  C   0.84320895092506      1.58349009843970     -0.99517893217533
  N   2.11554150874768      1.31526177422985     -1.00679198083199
  C   2.69170772903521      0.44371326536038     -0.14054945032345
  N   3.96535154828455      0.79496898918905      0.19293906151704
  H   4.39707742892441      1.46997530353313     -0.41255182161161
  H   4.57396084220334      0.09940355593671      0.59044554681232
  C   2.14460224299083     -0.75014027174178      0.34496533870304
  C   3.01664464777460     -1.61125671272065      1.03430801075616
  N   3.76127075681857     -2.31659988553449      1.58957493499588
  C   0.79434475355768     -1.21819051213431      0.11720597320403
  N   0.62163894963750     -2.60549075276500      0.04652440421388
  H   -0.20386541151678     -2.93925171038322      0.52032321207071
  H   1.42949653834764     -3.13434676269244      0.33586068293181
  C   -0.26703548059168     -0.37681043113798     -0.05165398347247
  C   -1.58740210551197     -0.85952403889414     -0.46411052121394
  N   -1.64769833911855     -1.68878204888174     -1.52974948942487
  H   -0.80812162135806     -2.18144847253247     -1.78394204385752
  H   -2.52115842196444     -2.13323117460191     -1.76407198626584
  N   0.33725474258308      2.33831094285491     -1.99088128176310
  H   -0.55900406736687      2.76990252414784     -1.85450597395963
  H   0.97509513406715      2.77032081999375     -2.63813404340368
  H   -2.18183479055288      2.07062853900757      2.48075492521744
  H   -3.64201351420796      0.33882292056275      1.96140145990052
