25
Coordinates from ORCA-job ./opt_b97-3c_parallel
  N   -1.80262301975010     -3.60789312699114     -0.28650820218120
  C   -1.58689292222918     -2.46592263832909     -0.24529320781457
  C   -1.35230783650005     -1.06983618899894     -0.20215483706209
  C   -0.08744171546044     -0.63988035258431      0.22622597942462
  C   0.84368447411825     -1.57990172625805      0.72694810509983
  C   2.21874567556405     -1.53853678946702      0.71508523539509
  N   3.09204351576673     -0.68815683670660      0.17294384243096
  C   2.75571372664830      0.51324038298023     -0.27981771471219
  C   1.53775189188534      1.22615893669884     -0.11721057542032
  C   0.27641160241425      0.77760483511373      0.19291740832665
  N   -0.60973877394691      1.73927415655939      0.58111819738742
  C   -1.84320610538934      1.90557787420165      0.21550884317224
  C   -2.62663433689836      1.05309616436488     -0.63491344701097
  C   -2.41199513030983     -0.27961037349122     -0.73533037538205
  H   -3.16766691851421     -0.84767395722347     -1.26376580243216
  H   -3.52424793840251      1.46706251125746     -1.07474399165732
  N   -2.46881090026137      3.02996833815427      0.68202783172255
  H   -3.46857213340102      3.01069056306387      0.77646578438109
  H   -1.97344335308333      3.52777646106601      1.40296824658306
  H   1.60430907732956      2.30431967167372     -0.20603590001662
  N   3.76396106237435      1.17042679628988     -0.90524340501147
  H   3.67367140781494      2.13018493781236     -1.17800837903042
  H   4.68269446798402      0.76875493604396     -0.85087548178426
  H   2.70176052682718     -2.40611798425443      1.15541594061855
  H   0.42534031992006     -2.50768446217573      1.09543377437219
