19
Coordinates from ORCA-job ./opt_b97-3c_parallel
  N   -1.69391864648140     -3.20639687776857      0.49161681967523
  C   -1.47515790978617     -2.07735185684534      0.33590314262489
  C   -1.22905474682895     -0.69165606130876      0.16176291023690
  C   -2.28014043502974      0.20765297506283      0.48879370137146
  C   -2.41288395170045      1.52963747728187      0.16085702616220
  C   -1.50292573695285      2.27713589878049     -0.62728236026124
  N   -0.23148445398010      2.07205752169359     -0.79325816667521
  C   0.45554435781879      1.08296520105916     -0.19262389130537
  N   1.54077454384685      1.34754105799400      0.47763995869189
  C   2.49095442797262      0.47379992769142      0.83483450305270
  N   2.90617461345162     -0.60960901432218      0.22330964029729
  C   2.16577962481938     -1.16959689706688     -0.75804192489446
  N   0.87660700128777     -1.14305865920513     -0.93641350507226
  C   0.01638668359013     -0.31020337961713     -0.32277386430328
  H   2.71731179839367     -1.80432394004280     -1.44313017644953
  H   3.06627644673495      0.77701974681003      1.70338315706663
  H   -1.90734146532661      3.12739710212483     -1.16942996157034
  H   -3.35918916843019      2.00327368112178      0.38402359082038
  H   -3.13120903429996     -0.25329355134191      0.97304402853393
