26
Coordinates from ORCA-job ./opt_b97-3c_parallel
  N   2.89992644598333      1.77490501143616      2.04748351345895
  C   1.97709816090754      1.72066829924011      1.34396287467846
  C   0.80444391477229      1.66720615298024      0.54987897581541
  C   0.16712386829382      2.87750188957456      0.32221000983810
  N   -0.88870196233525      3.17107563355627     -0.43045261615735
  C   -1.80155707388445      2.30345079938391     -0.81072984624469
  C   -1.99282156359814      0.96177745117104     -0.44184282033180
  C   -3.26725385114656      0.41028053386120     -0.73078917718799
  N   -4.31990977415914     -0.00561167719371     -0.99001790090122
  C   -1.04702937056968      0.05967593182399      0.11737050884764
  N   -1.51027547342425     -1.06819161077861      0.61643465747631
  C   -0.87849476924723     -2.22672483589666      0.75552906031995
  N   0.10638061196061     -2.74702152388029      0.00096869830003
  C   1.03988668553900     -2.00592820471217     -0.54989732955587
  N   1.88825346534938     -2.64251118796637     -1.36684897590599
  H   2.70181881139999     -2.18939140450137     -1.74449722556512
  H   1.79754181089623     -3.63859137814512     -1.46070839167987
  C   1.30977089074469     -0.58758017866498     -0.29784607679988
  C   2.62454901695537     -0.17542685001731     -0.60586656932664
  N   3.70460018538484      0.07169842439761     -0.95895614666563
  C   0.38116474312300      0.36557515504143      0.08524109481997
  N   -1.37812463950276     -3.05159620233250      1.68750658901889
  H   -2.24027570653732     -2.81013373382895      2.14141975847299
  H   -1.04027163873685     -3.99488804798251      1.73700469803711
  H   -2.57753753625278      2.72142494330472     -1.44402012437422
  H   0.64330087788354      3.74316931562833      0.77057945121261
