29
Coordinates from ORCA-job ./opt_b97-3c_parallel
  N   -5.13385586496740     -0.57380327319456      0.04377727604715
  C   -3.99915723402922     -0.32330529177988      0.00154390610529
  C   -2.60418721438959     -0.09067532424220     -0.01162784298166
  C   -2.18773417657777      1.14508641535215     -0.53476998111291
  C   -0.96944811536886      1.77259880181524     -0.47567639945554
  C   -0.85380964800152      3.07124503409290     -1.02744527034478
  N   -0.75824053244720      4.12777470352425     -1.49988909450648
  C   0.20366888840111      1.26792936596140      0.20659741451343
  N   0.96518573885633      2.11850022247923      0.81344275382068
  C   2.20288432847580      1.97318213866883      1.30720122372321
  C   3.20120587716445      1.17920445250927      0.83930050017478
  C   3.05314242153525      0.15235625334340     -0.13392935935817
  N   4.18096283965454     -0.31454696851627     -0.70016683620695
  H   5.06219355161191      0.12907251684603     -0.52536960335300
  H   4.16494740862614     -1.08883874287226     -1.34190341991511
  C   1.82494420585361     -0.46554851188612     -0.45030139532261
  C   1.88958350898322     -1.50939601933101     -1.39583799812221
  N   2.02966705705933     -2.33375806564411     -2.20523474012451
  C   0.52525287306229     -0.15687374043778      0.08927028911163
  C   -0.36239240734893     -1.18964712159356      0.36763234915813
  C   0.20288812919098     -2.46712009569655      0.60491605099633
  N   0.59073738393819     -3.52793398070986      0.87910324025625
  C   -1.80089503477033     -1.14308439397510      0.47705058448566
  N   -2.40600611715039     -2.22355531769912      0.99725709289885
  H   -3.40857705864550     -2.30384100953170      0.97534319591117
  H   -1.87824629866847     -3.04642069989282      1.23279835652582
  H   4.19900568984395      1.35403951707265      1.22055200116934
  H   2.43708037523587      2.66755932305799      2.10616293522873
  H   -2.97859105972803      1.72316961277908     -0.99308697432231
