28
Coordinates from ORCA-job ./opt_b97-3c_parallel
  N   4.50809518403347      1.26172104317390      1.76887289365001
  C   3.62874767021925      0.81605616737794      1.14818780964110
  C   2.60165752493143      0.22378471644112      0.38802634871769
  C   1.45977494567562      1.02915139117505      0.06348879618562
  C   0.23352371121833      0.62457175799121     -0.33924743776323
  C   -0.75286088835265      1.65668125626792     -0.72980523778453
  N   -2.00203852454506      1.72557645064333     -0.38728004718296
  C   -2.71507946999547      0.79521922623461      0.28765519418912
  N   -3.73678812361576      1.31771513745258      1.00259343520557
  H   -3.98357569273724      2.27319144815912      0.81978023286887
  H   -4.44559675430777      0.71347359878997      1.38137544311532
  C   -2.55770108244009     -0.59705365937749      0.19616130060947
  C   -3.61346927528747     -1.39571724901238      0.67541439429004
  N   -4.51348698181434     -2.01058888323532      1.08684370497061
  C   -1.43397357897109     -1.24713727267182     -0.38024861500834
  C   -0.17531242830732     -0.76107074015376     -0.57541436563930
  C   0.79527495052152     -1.66161256650846     -1.16659909010993
  N   2.05674152532143     -1.78683524818505     -0.95869396034141
  C   2.79701537340307     -1.08811733599455     -0.02808357403663
  N   3.83851200895616     -1.81868532082974      0.41924908432086
  H   4.06568532671794     -2.65845515078736     -0.08060231663911
  H   4.52777723550123     -1.41585940892021      1.02966773987013
  H   0.39681272270378     -2.36597551882278     -1.89703629778236
  H   -1.58945072117201     -2.29121547897642     -0.62520644216098
  N   -0.27684837636617      2.66659905021803     -1.48900707687717
  H   0.61685356034678      2.58241984927837     -1.93438448802280
  H   -0.92497444834314      3.35372379631341     -1.83377380672164
  H   1.60808427471002      2.09227899965541      0.20502105014467
