27
Coordinates from ORCA-job ./opt_b97-3c_parallel
  N   -1.44995924959634     -3.80677233892037      1.47386265478348
  C   -0.71731500556000     -2.98349142645038      1.10177354713166
  C   0.15556436561148     -1.97385700371927      0.63332590394129
  C   -0.45819552649865     -0.74696977420623      0.18152634489380
  C   -1.76663741994388     -0.76504434110182     -0.21744534819985
  C   -2.61116358593933      0.32533989117380     -0.60186255610267
  N   -2.53772050464948      1.59344894582214     -0.24869991141170
  C   -1.52155055168853      2.03800284211964      0.51696363454757
  N   -0.26092926829597      1.64862779132223      0.57989982860475
  C   0.30521211190161      0.50637849395743      0.21136305864237
  C   1.66726125505327      0.59444915475184     -0.13166221166783
  C   2.16934546032131      1.90570635413852     -0.29664799122859
  N   2.67859275003929      2.93547232015679     -0.48124754362580
  C   2.60305995383330     -0.46655143910319     -0.36836555193305
  N   2.55183916716802     -1.72531492763727      0.05572746656697
  C   1.49959171981239     -2.31937648420251      0.58931057054143
  H   1.72833759954209     -3.29537183600404      1.00614018209591
  N   3.73487778599453     -0.16124078690531     -1.03431312273119
  H   3.95951407087196      0.78678593325252     -1.27936809136851
  H   4.46894365527274     -0.84650522548447     -1.02230852203814
  N   -1.82166541465853      3.12179449312537      1.26444324412859
  H   -1.06405596189950      3.65615629884266      1.64915481664220
  H   -2.70417421421190      3.57272848872453      1.10965974281528
  N   -3.67132724628613      0.00440563794794     -1.37322310223430
  H   -3.86292396321808     -0.94264479723631     -1.63781151697069
  H   -4.35999711011371      0.71040296395457     -1.56056824630988
  H   -2.22381561066699     -1.74281207602548     -0.29661030241201
