28
Coordinates from ORCA-job ./opt_b97-3c_parallel
  N   5.76988679664044      0.34789371200399     -0.42501990020794
  C   4.60563523140680      0.33705969236551     -0.38791572961470
  C   3.20378435677294      0.27248248433968     -0.29597951669378
  C   2.43748994126921      1.27150877169241     -0.89798030489012
  N   1.16644594133415      1.55829819057169     -0.77566224317785
  C   0.16611135707930      0.84640686963027     -0.22299408744647
  C   -0.94309304328687      1.56978602646750      0.17017597265419
  C   -2.27398797439960      1.18161785553704      0.38278353812944
  N   -3.09651424758760      2.13397478970105      0.89498186792693
  H   -2.75682946406020      3.07249739852736      0.98886043230609
  H   -4.09455737739512      2.02096913314924      0.85640050595849
  C   -2.86148028859195     -0.05878430923866      0.02705390792937
  C   -4.25976336321524     -0.14408083804240      0.12804382810886
  N   -5.42076337537577     -0.21283044316418      0.21244314370031
  C   -2.18268756047324     -1.22207855531072     -0.43055322359348
  C   -0.80470119185875     -1.45759020053613     -0.40020329755941
  C   0.25679781763179     -0.61919147339190     -0.08751283898645
  N   1.36340136941995     -1.21966741192299      0.36065253249049
  C   2.61617477717683     -0.81554074584256      0.42519302438502
  N   3.41971109337645     -1.56293063751692      1.21318761670886
  H   3.06041608884120     -2.43581998727324      1.55375969647690
  H   4.41259776899969     -1.41199471453140      1.22548459405128
  H   -0.51278895954796     -2.49580808630133     -0.50480012186829
  N   -2.95744154363635     -2.25437305147344     -0.85794527472046
  H   -2.53480069744488     -3.15115268342772     -1.00687079501136
  H   -3.94845185621089     -2.25064815153134     -0.69047464226006
  H   -0.76289402977386      2.63795479140550      0.20304950543189
  H   2.98513699931292      1.96275320081864     -1.53276696433149
