25
Coordinates from ORCA-job ./opt_b97-3c_parallel
  N   -0.64251897380507     -3.61058074313377     -0.75421878940629
  C   -0.07821741629713     -2.60958466236835     -0.56694202622706
  C   0.59876683561127     -1.39115162594522     -0.32971671326802
  C   -0.22815018850808     -0.23984937058754     -0.03147476513189
  C   -1.54240716555198     -0.48734036615204      0.32709797975138
  C   -2.70300982238676      0.31041104669610      0.35298361496063
  N   -3.82666173476053     -0.28327028424787      0.86257726573906
  H   -3.84174056892338     -1.28432473766059      0.94495224335953
  H   -4.71736800692871      0.13193445461098      0.65608126600658
  C   -2.81834126985515      1.61463842937182     -0.12952732738460
  C   -1.78396234149937      2.40197134792577     -0.59558803022782
  C   -0.42036400713992      2.19075984527090     -0.60382814512217
  C   0.35100844273025      1.09191273825252     -0.17481278526911
  N   1.62455414977453      1.38833391151482      0.08145214607082
  C   2.69264580155442      0.61760727265833      0.21988398932334
  N   2.96485690287888     -0.62990615546809     -0.22038326134284
  C   1.98748383431114     -1.47557904846502     -0.47125179361830
  H   2.33786394501117     -2.44694916794382     -0.80876730525556
  N   3.73413358337636      1.20406314569282      0.84672742260659
  H   3.69256161862482      2.18408899891228      1.05442475339187
  H   4.61423075577762      0.72320734022001      0.86030318407046
  H   0.18948585962979      3.03114424964055     -0.90851006583481
  H   -2.08635121543794      3.37449648997684     -0.96738004522677
  H   -3.81024589038253      2.04967370050263     -0.13934311795284
  H   -1.73548467150369     -1.52391877307632      0.57538072018773
