28
Coordinates from ORCA-job ./opt_b97-3c_parallel
  N   -1.95491687424122     -3.98311398271853     -0.12140144517108
  C   -1.69945738028178     -2.85163661523328     -0.03608034644643
  C   -1.42619909721716     -1.46547109758882      0.07950812962565
  C   -0.11022135099404     -1.04120472373097     -0.18694049264214
  C   0.80060164140248     -2.00598268820387     -0.69332490784489
  C   2.16936470169263     -2.07103080518009     -0.62579673239400
  C   3.09595840212810     -1.21228210418165     -0.04429382789425
  C   2.82988193920069      0.05574542885401      0.44286312112960
  N   3.84475434830521      0.76539275014215      1.02513380883366
  H   4.78750745543701      0.44991516716246      0.88285336528615
  H   3.74604385612574      1.76104240942871      1.11084997981242
  C   1.58443554163618      0.73286730286993      0.34634148587092
  C   0.31769419366675      0.33741709541327     -0.00876418282523
  C   -0.58993170230754      1.44459214712318     -0.35106751266199
  C   0.00305076185353      2.53210987534418     -1.01691260532295
  N   0.43700509894081      3.46902817137054     -1.56016506250221
  C   -1.91363241684505      1.62207536305589      0.04587675691889
  N   -2.50568381796143      2.83443888201200     -0.11639686059373
  H   -2.03573440326803      3.54602832783523     -0.65069678994547
  H   -3.50746291288577      2.88656486867562     -0.09898389112637
  C   -2.72279565956277      0.62038849377742      0.65484425737032
  C   -2.51518048285513     -0.71729003652184      0.59928384184454
  H   -3.32011067546834     -1.32816542660816      0.98889827591550
  H   -3.65265592793199      0.95876145322033      1.09333625402017
  H   1.66134976305975      1.79208494475005      0.56076196052154
  H   4.12138750740307     -1.55824897876566      0.00314270347600
  H   2.59389682739179     -2.97102087094098     -1.05542228622644
  H   0.33101572565658     -2.86555789095233     -1.15213009581614
