26
Coordinates from ORCA-job ./opt_b97-3c_parallel
  N   -4.60209396388373     -1.62596158083014     -1.21430437382818
  C   -3.66451541148107     -1.12658847748018     -0.74793102097379
  C   -2.53258406578173     -0.50458438909914     -0.14496014520827
  C   -2.80834888667448      0.31352662013978      1.01839087724306
  C   -2.06484009625574      1.36133634002126      1.42961426910574
  C   -0.86643221069708      1.86369623128450      0.83232726914366
  C   0.04378387241606      1.17580768467609      0.10089684687506
  C   1.15873481714574      1.89329550759597     -0.54342706418667
  N   0.82280307943409      3.06544535310343     -1.16022256280231
  H   1.47021849348403      3.46187820726633     -1.81974668637632
  H   -0.14694121010530      3.21428396702716     -1.37496478620941
  C   2.47005517005913      1.50772722409706     -0.43925088971753
  C   2.99025038497148      0.32671272333369      0.11830303785214
  C   2.34287978056863     -0.86560590005712      0.33675102809812
  C   3.10964330873730     -1.95835764492739      0.81528508175530
  N   3.72478590806538     -2.86281966160995      1.20715381939076
  C   0.98133515816381     -1.14231047616965     -0.01679356664612
  C   -0.03551293430889     -0.26263572109006     -0.16608482469073
  C   -1.31713592559055     -0.73427923224277     -0.69609032943078
  H   -1.27855574796135     -1.35070538868188     -1.58667757979056
  H   0.74410310768558     -2.18759574262828     -0.17805447389450
  H   4.05432784729619      0.33471453359661      0.31700937340608
  H   3.20752101313878      2.21813922569572     -0.79643295687475
  H   -0.65229307796922      2.90827546453000      1.02564777639174
  H   -2.45964094609071      1.94678231343007      2.25133352056164
  H   -3.74619201236624      0.12116619201953      1.52149172260851
