30
Coordinates from ORCA-job ./opt_b97-3c_parallel
  N   -4.25694409923095     -0.78017172314804     -1.22362498621846
  C   -3.24689137321219     -0.47829453874595     -0.72580637152307
  C   -2.01258539829914     -0.15517598049317     -0.13290539135727
  C   -1.96170017774509      1.05023110273604      0.68790645372446
  C   -0.85801508622759      1.82294427139669      0.88773570135387
  C   0.44273195791653      1.64084112650606      0.31950041337205
  N   1.16256973292427      2.81840657490491      0.05027028192363
  H   0.76459109383554      3.63719898868064      0.47957871447102
  H   2.14825933211650      2.75405604568781      0.25661717259924
  C   0.98677920697144      0.43688872063161      0.00000783674899
  C   2.27483745821350      0.32795745103731     -0.73385473070065
  N   3.34140846693040     -0.26416241155492     -0.29630516654046
  C   3.35736563505850     -1.06392115262934      0.80544295922932
  C   2.36263144916819     -1.84430575459895      1.31379079253797
  C   1.01374056615367     -1.87938928655512      0.86689500161946
  C   0.36157522361311     -0.85436062066796      0.25280202830498
  C   -0.97763988155210     -1.05922435544143     -0.30558300782616
  N   -1.17101559105641     -2.21817150293617     -0.97548440886573
  H   -2.03310975751095     -2.38739728459907     -1.46756673722132
  H   -0.36374969703125     -2.73437919952785     -1.27160288585700
  H   0.45351262322517     -2.78675313317683      1.06616321182216
  H   2.64933172601016     -2.56044994283246      2.07422637090308
  H   4.34721911851288     -1.17518288624815      1.23585592960879
  N   2.29261329822900      0.86546808159720     -1.98408104616691
  H   1.67030330699084      1.63751011461657     -2.15549456575100
  H   3.19331264525580      0.91267363053892     -2.43204509208473
  H   -0.99242101859968      2.71155501859239      1.49725354766805
  N   -3.15842201893982      1.39868060311522      1.28584174568962
  H   -3.99394424689866      0.99436225824238      0.89751743094192
  H   -3.26835002762165      2.37091523647161      1.51742194069475
