33
Coordinates from ORCA-job ./opt_b97-3c_parallel
  N   -4.26100164935589     -1.79679260385899     -2.25438508758879
  C   -3.53923424110937     -1.24085191499262     -1.52823735247730
  C   -2.71562365741211     -0.52690466566142     -0.63588648736783
  C   -3.27435089071286      0.59974173029182     -0.01345643578536
  C   -2.63509634414164      1.40863900896445      0.96514773152136
  C   -1.29498821804740      1.61498738840782      1.15214685998585
  N   -0.87760808566672      2.57300384768609      2.02784536185883
  H   -1.54366936402640      2.99740662956583      2.64980773928747
  H   0.06672374525605      2.52230730417729      2.36457943365314
  C   -0.22624913968474      0.93934532861147      0.41229237738432
  C   0.82612920905255      1.65982189596562     -0.03575463063266
  C   2.01223205114625      1.18431804120654     -0.68061471571731
  C   2.71860662759799      2.10642041677086     -1.47785330746071
  N   3.34540762922559      2.83870725011848     -2.13184393580121
  C   2.61894170319088     -0.04999715071944     -0.45982737032614
  C   2.09544715810322     -1.07997426403213      0.41842878731225
  C   3.02653080441979     -1.99785765300755      0.93902310273410
  N   3.76981813744248     -2.78422095693472      1.37235346144206
  C   0.75000914361487     -1.35348904132547      0.65818957101673
  N   0.40713604032606     -2.49019824576992      1.29592182145942
  H   -0.53017616093245     -2.59688895651408      1.63552827008713
  H   1.10494429455529     -3.13734064572468      1.62407343587269
  C   -0.35923774967228     -0.51304694222498      0.22447086053031
  C   -1.46235192928445     -1.11131516988631     -0.29783451990669
  H   -1.37853335739805     -2.16587210313166     -0.53377270063707
  N   3.81392876356657     -0.31810854153789     -1.03194059061299
  H   4.31955459363816     -1.15172352110339     -0.79455555730427
  H   4.31972496816431      0.41033948599848     -1.50557496361336
  H   0.76185681469797      2.73745372823455      0.05497639189913
  H   -3.30679407687748      2.00598940182170      1.57197857510610
  N   -4.58233469387036      0.89307618438119     -0.24732451078293
  H   -5.07118441613945      0.40122228943089     -0.97635066625696
  H   -4.91465256687004      1.81686313438932     -0.04228915608126
