28
Coordinates from ORCA-job ./opt_b97-3c_parallel
  N   2.93024362763419      2.12795834192569     -1.67141058193739
  C   2.42531993926487      1.27481286500563     -1.05858056908965
  C   1.88383823490556      0.20420577169134     -0.32127151174966
  C   0.54859960201087      0.41607618179493      0.19219385999358
  C   0.13434334350297      1.69866356952960      0.41956158880518
  C   -1.19591349158173      2.18415286622046      0.58357660605352
  N   -2.32917461091684      1.66517448230759      0.15859228183365
  C   -2.48799772925600      0.44553037056990     -0.36927140142912
  N   -3.65475543521115      0.30625062055362     -1.03778376800978
  H   -4.33356076260248      1.03639554361507     -0.92182631132871
  H   -3.97641441209349     -0.60347256900975     -1.31944870475668
  C   -1.66022984646735     -0.69666094983629     -0.22357031874183
  C   -2.24168644599759     -1.93665068583791     -0.55809250679786
  N   -2.80141654419490     -2.90195708138610     -0.89027102530515
  C   -0.34660590028373     -0.74738967593829      0.32626154305386
  N   0.01237296144586     -1.88150920438523      0.87676353661736
  C   1.22092142517653     -2.35700898192759      1.17050806315757
  C   2.44355347994451     -2.02822265947668      0.66112129005271
  C   2.73913033232267     -0.89960628113724     -0.13931441218392
  N   3.99070100122233     -0.84792400449064     -0.66260592514842
  H   4.25168800366299     -0.10108395870568     -1.28294947585405
  H   4.53003669549030     -1.69074010553973     -0.72013784425287
  H   3.27323752218356     -2.67542626766494      0.91590787008703
  H   1.19340018001744     -3.19078735176053      1.86591183145385
  N   -1.31993460565818      3.39196398318966      1.18541845385863
  H   -0.51090690313880      3.93775021857382      1.41340488945000
  H   -2.20703362136721      3.85869081399539      1.12505690484839
  H   0.90318049058588      2.46071804042217      0.43894143922235
