21
Coordinates from ORCA-job ./opt_b97-3c_parallel
  N   -2.64992334595925     -2.06320413399153      0.79593376593978
  C   -1.84687082630002     -1.08950798587367      0.29871938142841
  N   -2.40829937535247      0.09946515774572      0.19313150136358
  C   -1.77019395218532      1.18218814974255     -0.30068394936290
  N   -0.50765023971816      1.55839953606300     -0.15577258480554
  C   0.47176332770357      0.72102719628985      0.14424308599801
  N   1.45937582736572      1.10635931364459      0.92719905664606
  C   2.64897324027419      0.52775035770606      1.06659627108131
  N   3.36966187795455     -0.17915210731967      0.22081403375565
  C   2.80184619630167     -0.69195859307575     -0.88886488004883
  N   1.56497897941696     -1.01558950733387     -1.13396041708079
  C   0.48741540977986     -0.66724310430815     -0.38818515079490
  C   -0.56336365944708     -1.50682647563557     -0.17785009824567
  H   -0.43879875852903     -2.54847018785272     -0.44573724471793
  H   3.50568656862400     -0.95672726266102     -1.67280282074595
  H   3.14456419877585      0.76936051268062      2.00304086359608
  N   -2.58080466595456      2.06971729517496     -0.92038539872897
  H   -3.57134973399999      1.93854668290194     -0.83125340723505
  H   -2.23224811065164      2.99971436426037     -1.06577914037158
  H   -3.53522309853540     -1.77932723188678      1.17657291591258
  H   -2.24718694196409     -2.91629269387098      1.13569700621680
