27
Coordinates from ORCA-job ./opt_b97-3c_parallel
  N   -2.54733539061256     -3.21301012019139      0.21339539890119
  C   -1.62202719384282     -2.51009842712841      0.21909166369670
  C   -0.46067725073758     -1.69599315015792      0.24825712937344
  C   0.74496753876060     -2.35028666643070      0.60869644510602
  C   2.03447825091993     -1.95327964205585      0.47477061298518
  C   2.52031089850680     -0.75141824835794     -0.11872945669532
  C   1.76444507319175      0.40479515437281     -0.33352003186004
  C   2.44885474582734      1.49494088251011     -0.90228759433304
  N   3.07001955793150      2.35802671630754     -1.37975605769851
  C   0.40414813695172      0.66279630351255      0.11005522021006
  C   0.10263610568527      1.90250665196460      0.61884873040626
  C   -1.15142180059586      2.44838302525420      0.97730929577090
  C   -2.39497573464245      2.05416742800647      0.60518519807991
  C   -2.61744530165139      1.00607682463303     -0.35060358736256
  N   -1.83319999250613     -0.00714114040362     -0.58396104025892
  C   -0.64565454638850     -0.34538769361067     -0.05845826655080
  N   -3.75967820486705      1.05812212021831     -1.07436736165617
  H   -3.96312329632215      0.30942388654078     -1.71125140593126
  H   -4.36220728001600      1.85696428028706     -1.05251567841262
  H   -3.24863901616509      2.63891698766410      0.92278420008314
  H   -1.09713001374443      3.33915571804090      1.59241471108244
  H   0.95099132097913      2.54172562593770      0.82568298910247
  N   3.84352716633215     -0.74413729719802     -0.42284858303633
  H   4.23958732948133      0.03286378999628     -0.92374360178879
  H   4.33660137977858     -1.61492661589630     -0.48319386053742
  H   2.79381400932612     -2.66255485239018      0.77854692478067
  H   0.60508867923301     -3.35127395191089      0.99679496057249
