29
Coordinates from ORCA-job ./opt_b97-3c_parallel
  N   -1.48061410395346     -3.75755182218017      0.90589055564373
  C   -1.61717160754796     -2.63326033868427      0.63864217849504
  C   -1.79467237948388     -1.26430406845138      0.31606077381470
  C   -0.59492598594701     -0.50879136422345      0.02830403830429
  C   0.53525173943174     -1.26087699650098     -0.22556010714990
  C   1.91295436502164     -0.98370445622974     -0.32937702414404
  N   2.68358024858043     -2.04509087447816     -0.67516136804856
  H   3.68558026452418     -1.98517223374313     -0.62488819701340
  H   2.28758713035650     -2.96652340853498     -0.66570187907782
  C   2.56407632251614      0.23939516782074     -0.08452213543118
  C   3.96663851092057      0.24124587086055     -0.11992067545462
  N   5.13286097061669      0.23338565043150     -0.14327033128702
  C   1.90894290203572      1.46704400632167      0.21507576108416
  N   2.72409248440446      2.54015361617768      0.43090546395390
  H   2.33070995856831      3.37023266920194      0.83289619540713
  H   3.70491383602435      2.39618569521306      0.59497601844978
  C   0.54343582092122      1.72249698743001      0.23598125503104
  C   -0.61666417591258      0.95074583499129      0.04398722740618
  C   -1.78532409448339      1.70571819519724     -0.13502964991994
  C   -3.13933885951008      1.37556305879452     -0.23883280033896
  N   -3.77825146829506      0.22036626599379      0.01410478444340
  C   -3.14399371582417     -0.89156396175989      0.30517393123834
  H   -3.81689020343059     -1.70399808179379      0.56473767585822
  N   -3.99541692927731      2.36159007562648     -0.62453569071221
  H   -3.69991873966746      3.31911003258899     -0.65385983935768
  H   -4.97410658528790      2.17735927924051     -0.49395546459339
  H   -1.59543143205579      2.76607284084519     -0.25500918416810
  H   0.32560261775526      2.77284658053261      0.39040058040418
  H   0.33182490549946     -2.31668768598780     -0.34068466703726
