26
Coordinates from ORCA-job ./opt_b97-3c_parallel
  N   -5.08170309556746     -0.11606265821698      0.78256256482144
  C   -3.92631476070468     -0.11392082905493      0.63807576009364
  C   -2.53877831372268     -0.05562343993639      0.41597191003352
  C   -2.01648615957318      1.01301729945769     -0.39741512733294
  N   -0.77293632533763      1.43252263636188     -0.42542149697310
  C   0.36947127838269      0.88357655067764      0.01178104401675
  C   1.39443240259093      1.76349896855054      0.33687089320225
  C   2.77913445613876      1.56512478837394      0.35412587443385
  C   3.45923996558301      0.42722570215693     -0.12640839824775
  C   2.92238304300571     -0.76598284100775     -0.53026812002505
  C   1.61184484868875     -1.25753778903968     -0.43665859329851
  C   1.42869987805456     -2.62533392774476     -0.76120161388748
  N   1.31377342805614     -3.74132681707612     -1.06258570752372
  C   0.48742629911449     -0.58040681593320      0.09454378953352
  N   -0.45915808692203     -1.30851016930128      0.66369557417429
  C   -1.71520487559784     -1.03781860150695      0.94633409955880
  H   -2.17200158426208     -1.73040807667102      1.64614798548602
  H   3.63664495161489     -1.48614673909076     -0.90810502948123
  H   4.53778980206149      0.50578553468828     -0.18433363899230
  N   3.55010271223941      2.59759519193017      0.79992653942553
  H   4.52987729019958      2.60921046309103      0.58348550678966
  H   3.12986529367714      3.49500249217953      0.95770520623351
  H   1.05765645771269      2.78479744653816      0.47397740514703
  N   -2.88674141897652      1.70129354101759     -1.16185977008062
  H   -3.86892228589291      1.49384799156558     -1.14979950222164
  H   -2.56920506655242      2.53796091139662     -1.61555680067327
