27
Coordinates from ORCA-job ./opt_b97-3c_parallel
  N   -0.96669177392107     -3.97917383882474     -0.90682216250311
  C   -1.15129909216001     -2.86522345883216     -0.62622095141345
  C   -1.38003522090958     -1.50895665494653     -0.28121829135036
  C   -2.72449740782796     -1.15071256929186     -0.33628399158829
  N   -3.37228101483900     -0.04557983046252     -0.00096634119131
  C   -2.75486315352405      1.07660500690746      0.33503482703785
  C   -1.42053983837898      1.47101421917943      0.28112311993272
  C   -1.22875266113801      2.83284313327613      0.62674026964135
  N   -1.07424047126128      3.95118987264251      0.90805223858583
  C   -0.21171835721870      0.72377993880042     -0.03025816205201
  C   0.90034576750513      1.48775184045071     -0.32120552224066
  C   2.28611756879696      1.21296293486264     -0.36754479879736
  N   3.06432681763473      2.24946283571049     -0.78626021461220
  H   2.66926591240484      3.17083772475291     -0.83643785634992
  H   4.05718517620297      2.21133925890934     -0.64627070486518
  C   2.93184927192118      0.03962618285648      0.00060578080930
  C   2.31794500693721     -1.15064851107320      0.36888187238954
  N   3.12377861360130     -2.16569373815816      0.78788117151568
  H   2.75373410038281     -3.09739579238342      0.83818007628136
  H   4.11530126881752     -2.10073770873146      0.64831798273194
  C   0.94013034628206     -1.46276098832743      0.32234243103331
  C   -0.19207345370677     -0.72921909068659      0.03066370261770
  H   0.74744762910002     -2.51192971238705      0.50074055199788
  H   4.01534988279184      0.05421744130198      0.00061728086974
  H   0.67941266995643      2.53147188356451     -0.49896131441202
  H   -3.43191813667198      1.85318304945890      0.67878850773627
  H   -3.38004890427474     -1.94535113529156     -0.68044369240673
