27
Coordinates from ORCA-job ./opt_b97-3c_parallel
  N   0.00985795383335     -2.86571261532235      0.08597411507827
  C   0.44548183688074     -1.53509053607692      0.22743677667545
  C   1.80969868382805     -1.35466154883549      0.59171564576810
  C   2.59275462830459     -0.26205371514838      0.31865203659430
  N   2.29533808349480      0.80820009011528     -0.47337681291891
  C   1.11561358465813      1.31977742675156     -0.61125161479463
  C   -0.11150310109203      0.89628493718714      0.09728593057596
  C   -0.93038895290055      1.80889470712303      0.67628979762085
  N   -2.07829159161220      1.55561969917776      1.38114539522288
  C   -2.86295954769400      0.56630250219722      1.09058969041338
  N   -2.88543988465668     -0.27959137785070      0.01878246236498
  C   -1.80150196637602     -0.73178066608536     -0.53612174676933
  N   -1.90217277514466     -1.40529951800936     -1.70905680498886
  H   -1.15489886007977     -2.03646300548095     -1.94415051435794
  H   -2.82881012207787     -1.66605867044238     -2.00343116030906
  C   -0.43538401671084     -0.51706694219321     -0.00678769271510
  H   -3.72977901827618      0.45351502078972      1.73695321958951
  H   -0.62880867517028      2.85140164453388      0.68041744296083
  N   0.97889231799275      2.36834069823079     -1.46555051963724
  H   0.05793473382445      2.60800841426218     -1.78188363766876
  H   1.74795316553733      2.56167712887094     -2.08499928053928
  N   3.91518279065989     -0.24636671525312      0.72849109696638
  H   4.33591642801379      0.66653693784875      0.69319983905194
  H   4.12229757418542     -0.75483605438474      1.57014135286689
  H   2.29728679351125     -2.19106047666291      1.08121024266028
  H   0.67350383689885     -3.53897551609187      0.43191314721404
  H   -0.90387173093246     -3.04185495345083      0.47600323787450
