30
Coordinates from ORCA-job ./opt_b97-3c_parallel
  N   -5.89769855714350     -0.38453433062797     -0.20509742775821
  C   -4.74397334479512     -0.31361223576583     -0.06918599496891
  C   -3.34851939863768     -0.15242848851280      0.06120932132393
  C   -2.62900764385241     -1.18158126262840      0.67424568369497
  C   -1.27860938309721     -1.39074381842031      0.79432662290323
  C   -0.18170349754140     -0.61066848470057      0.36385953495574
  C   -0.32204371299339      0.83647782776550      0.23827069357295
  N   0.65256411785598      1.67786618768115      0.63073700152472
  C   1.95034952030318      1.59128772580827      0.52336332712390
  C   2.70340053721678      0.60407650592886     -0.20193047323188
  C   4.00108120974993      0.94161878649766     -0.61082993469886
  N   5.08497070397175      1.21182678035725     -0.94642089763678
  C   2.29352929191208     -0.72974714910495     -0.34050542175341
  C   1.03842818057188     -1.27063948191444      0.11577507831998
  C   1.01343616388555     -2.68182515156049      0.16804672105801
  N   1.05198715349894     -3.84533421431838      0.17910123507754
  N   3.15640570626194     -1.59634544423662     -0.90474757669973
  H   4.09534555758386     -1.31042516131586     -1.12016949532739
  H   2.94592110233932     -2.57756781871441     -0.94895277179735
  N   2.65280207369207      2.57556109491515      1.12789557554875
  H   2.14863861321644      3.37372519257821      1.46760196839740
  H   3.64979780489840      2.63854087661240      1.03477986419657
  C   -1.46958707024568      1.47385174190010     -0.21855784265230
  C   -2.79418002843880      1.06217430993141     -0.41794253151945
  N   -3.62004389747200      1.93469726763964     -1.04364271542053
  H   -3.29990865571708      2.85695113718993     -1.27033045401743
  H   -4.61237366249680      1.77631033584516     -1.06232632300740
  H   -1.29301813464027      2.52691248310602     -0.40419361293917
  H   -1.01858414436619     -2.35425751708599      1.21095029075365
  H   -3.24369155202292     -1.98795599825063      1.05306708687741
