29
Coordinates from ORCA-job ./opt_b97-3c_parallel
  N   -0.71995795020590     -3.19489912003535     -2.21452200571371
  C   -0.82459894759815     -2.30456093105850     -1.47585340007996
  C   -0.96180692811692     -1.16107300386498     -0.64803469710837
  C   -2.23733800040733     -0.63946345487977     -0.55244934367805
  C   -2.70291802752805      0.50634044226109      0.09123967452761
  C   -4.10042299722025      0.66402263093539      0.22374854591801
  N   -5.23650545428959      0.86473633737245      0.36953249059562
  C   -1.89562320869100      1.58896960261557      0.51826745426321
  C   -0.49738566834589      1.68122374081680      0.33805908148106
  C   0.47336843945130      0.74519970731149      0.06947112756836
  C   1.78846711186988      1.25375419542054     -0.27586453072171
  C   1.83742586664826      2.51207779453106     -0.90329330743430
  N   1.93712219442039      3.55035694412598     -1.42228221637276
  C   3.02384184952817      0.64208081389376     -0.02992043770394
  N   3.26631569259170     -0.39984843794887      0.81673211689425
  C   2.43446395637958     -1.35356145656087      1.06527729723120
  C   1.13088875075487     -1.61672891614411      0.53367242765605
  C   0.70078484937570     -2.95074253187241      0.75122653150191
  N   0.39940007901603     -4.03962086114330      1.01885177588074
  C   0.23639576446291     -0.69066185188406      0.00764288447729
  H   2.80559190188409     -2.10934931774353      1.75111024513434
  N   4.15144330546235      1.14149768576329     -0.55968441269369
  H   4.14596635026983      1.95273249817245     -1.15257526776607
  H   5.02747711520710      0.78853872792358     -0.21943435437227
  H   -0.11491901319297      2.68635847190909      0.46423802311486
  N   -2.50222041568647      2.66295479007520      1.05823281131631
  H   -1.97879668923022      3.48608468174508      1.29044830462260
  H   -3.50448390550154      2.71543484822897      1.12372798742895
  H   -3.00550900500104     -1.24234935446076     -1.01795926037290
