31
Coordinates from ORCA-job ./opt_b97-3c_parallel
  N   -4.49499879013958     -1.43984394350025     -2.42981632302227
  C   -3.79966312928169     -0.88535716755833     -1.68138401673355
  C   -2.93861389540918     -0.22984157169706     -0.76741264786925
  C   -3.39751301451259      0.91374521244341     -0.14789288689123
  C   -2.77739219155828      1.69668796900662      0.83365533578019
  C   -1.43287818633288      1.77070834876965      1.13039577502678
  N   -0.99139174029838      2.63076268386011      2.08008597840349
  H   -1.63935307445105      3.08865137501935      2.69640168538065
  H   -0.03353608681958      2.58864285068265      2.37431053823540
  C   -0.39552188159212      1.04161651494053      0.39329743810154
  C   0.72299626222344      1.67492615358485     -0.02006468398296
  C   1.86496120591102      1.10061040625423     -0.66737724390854
  C   2.65194905677058      1.96515188768826     -1.45487788246432
  N   3.34332636507833      2.64476826194794     -2.09983155481500
  C   2.34773165840033     -0.19155492255032     -0.48273641283533
  N   3.49253291164730     -0.57667318736635     -1.09252568758817
  H   3.92449429719790     -1.45184062371864     -0.85908420396629
  H   4.06436059530733      0.10548859306422     -1.56035255445824
  C   1.74835681794174     -1.17266916869226      0.40631118124136
  C   2.60312762572198     -2.15650175008596      0.94017314706395
  N   3.27094602344172     -2.99746732554257      1.39136824501779
  C   0.39788645074411     -1.30429321199414      0.69168960780021
  C   -0.63587899266090     -0.39261012976391      0.18168983560596
  C   -1.73446244272982     -0.91791008578350     -0.40936724485302
  H   -1.72289825467624     -1.97955972204603     -0.62771251454136
  N   -0.04969190888427     -2.32447094093374      1.44507611781979
  H   -1.01699050218219     -2.35738287628017      1.70604704388937
  H   0.57698927477602     -3.00388456275691      1.84413726907436
  H   0.75708709606118      2.75211978404735      0.09237474692432
  H   -3.42576880166464      2.38827358327795      1.35943295523560
  H   -4.40989226412893      1.20603061718358     -0.39864334737189
