27
Coordinates from ORCA-job ./opt_b97-3c_parallel
  N   3.02384660056438      2.84474557246350     -0.05913370932962
  C   2.37021391417325      1.88574684953093      0.01756996351081
  C   1.67531115661339      0.65512808982134      0.03375813048676
  C   2.40523251403603     -0.48976822289289     -0.46566602448788
  C   2.10178443731614     -1.80887734923507     -0.19714801563271
  C   1.00280406465395     -2.27563670506466      0.55305561163320
  N   -0.17576808145455     -1.69664908795791      0.71188344513790
  C   -0.53145696750527     -0.45847059716119      0.40912381290564
  C   0.37650371272619      0.68821449179761      0.52910134245455
  N   -0.02861707813222      1.79644973693338      1.17078137307490
  C   -1.20578586460154      2.35788546653010      1.13700775833718
  N   -2.24670839248662      2.17129722522090      0.33133088400545
  C   -2.49228846182414      1.01714687143183     -0.27774000931569
  C   -1.84706112906593     -0.24964798515251     -0.04548081149975
  C   -2.57250765286417     -1.40365423590684     -0.40891408210151
  N   -3.23528917136077     -2.29613828349989     -0.75335305930068
  N   -3.53004277690239      1.03955633679353     -1.13635383925623
  H   -3.90465392730318      0.19106145395990     -1.52218847950576
  H   -4.10251780997948      1.86467405826987     -1.14119272441356
  H   -1.32867122911908      3.18092612048045      1.83496208571153
  N   1.10083601367830     -3.50014042224746      1.13179587799985
  H   1.89619878058285     -4.08334106569147      0.95372782777862
  H   0.24461572114927     -3.94917157681273      1.40478670215781
  H   2.81512967778888     -2.55282295436428     -0.53039158069971
  N   3.51445631683824     -0.21521893088731     -1.20039951134274
  H   3.87324563472490      0.72422096309764     -1.21948839930112
  H   4.18677287135299     -0.94376536445683     -1.35449293990825
