28
Coordinates from ORCA-job ./opt_b97-3c_parallel
  N   -4.05540575189033     -2.11768579246903      0.90776153984059
  C   -3.13734923799233     -1.50194018685194      0.54528283349350
  C   -1.96338268614467     -0.82965513041404      0.13691588144822
  C   -2.12291501169281      0.46005265485816     -0.44055290695952
  C   -1.21672525386099      1.47140879912733     -0.59103196277751
  C   -1.67319288376895      2.67630243524594     -1.17848823363215
  N   -1.99927003595264      3.69396788805349     -1.63697792027352
  C   0.14594651764841      1.47815264941880     -0.06667389319292
  N   0.65080217392307      2.71235595959715      0.32974070365237
  H   0.14329363402419      3.50931761373654     -0.02092032712180
  H   1.64269408999688      2.82693844869045      0.19495946514255
  C   0.86249885349421      0.34376752562449      0.11911794090925
  C   2.18880106239373      0.35835444970746      0.79579146396369
  N   3.30008903615719      0.04655235167106      0.20290303894370
  C   3.32381801232610     -0.54906315567853     -1.01990514731450
  N   2.53620046353253     -1.44471093252767     -1.53525033566748
  C   1.34992004197282     -1.80478184266574     -0.97489388409765
  C   0.49706097629136     -1.01350032027083     -0.26467835353989
  C   -0.76888239147128     -1.54652057339347      0.23344997504169
  N   -0.75758793766906     -2.79019682850362      0.73498073421199
  H   0.11130716991776     -3.27602152577757      0.85185105793183
  H   -1.59725061651803     -3.22347912275947      1.08378965156529
  H   1.03089941560761     -2.80966504219963     -1.23370725202472
  H   4.21898955840501     -0.32688619607041     -1.59275955336648
  N   2.19407285264012      0.68261203616711      2.10511974963491
  H   3.08456920006545      0.76513659606125      2.56657538574058
  H   1.42792233091822      1.21874938680979      2.47264764999671
  H   -3.13217154085436      0.68510486881362     -0.76009161884347
