32
Coordinates from ORCA-job ./opt_b97-3c_parallel
  N   -3.64425702233200     -2.05484441019902      1.55914746979434
  C   -2.87594361301926     -1.35003009345747      1.03459243412744
  C   -1.97610763945894     -0.48862112705123      0.38563068390383
  C   -0.74452650001293     -1.06525788025272     -0.11668418321295
  N   -0.78024369197402     -2.43777236877807     -0.42196268237212
  H   0.04388702629662     -2.92991291521980     -0.10920950213595
  H   -1.60718135766086     -2.90354748514439     -0.08092327422124
  C   0.39617020926185     -0.35721755667264     -0.32631256044740
  C   1.56401088869726     -0.95543774837423     -1.00025898177799
  N   1.31606492692210     -1.51443722637206     -2.23402062522512
  H   0.40190448206375     -1.93044052403974     -2.33272306140551
  H   2.05408100296635     -2.07206489653595     -2.63286849137194
  C   2.81967639625985     -0.91393118521777     -0.47813615216373
  C   3.25043546388709     -0.21037325783349      0.69647747272887
  N   4.47411972017781     -0.64732249422928      1.20131583950813
  H   4.61359456765148     -1.64351352866481      1.15823514116319
  H   4.70810680258270     -0.28198281323582      2.10973251242158
  C   2.67124296635069      0.91588667121662      1.22371971444684
  C   1.54685110481606      1.60094384944258      0.70172940895976
  C   0.52736295718704      1.06400703494584     -0.01624638996940
  C   -0.48805431247618      1.91804608442792     -0.65054095784864
  N   -1.77700282561122      1.79220565251914     -0.53702640385259
  C   -2.38226802194443      0.83726042795757      0.21314630038785
  N   -3.54226960796766      1.27414457583577      0.78068879802141
  H   -3.91820179965897      2.12012978261551      0.39224990846326
  H   -4.20734167881872      0.59864549510337      1.11686515908823
  N   -0.02732646585257      2.94238401225240     -1.40624644168063
  H   0.93047729303083      2.92676699540826     -1.70225853319461
  H   -0.68859178269257      3.45676601230976     -1.96389884595484
  H   1.48936439496255      2.66300954794863      0.92115272488659
  H   3.19238928972579      1.39788858764214      2.04420923999668
  H   3.60665122643921     -1.43157310824634     -1.01916789826205
