28
Coordinates from ORCA-job ./opt_b97-3c_parallel
  N   -4.71105957059419     -0.86336456917645     -0.43529177700923
  C   -3.56483010456060     -0.71283533900581     -0.28381369960235
  C   -2.17916855289770     -0.55905340318473     -0.10420432621548
  C   -1.74596582040748      0.71063517095558      0.39971871954843
  N   -2.70958213641437      1.52016629783159      0.89367582792333
  H   -3.67789038867928      1.27087058065694      0.79802491879870
  H   -2.50263041230331      2.48898520591577      1.06694980446750
  C   -0.43511525841709      1.22343400196286      0.33662749750882
  C   -0.27402763933899      2.58567890220702      0.65928596350337
  N   -0.22004528015725      3.70555279266185      0.97240232893131
  C   0.70562279545901      0.56945674075061     -0.22022510347477
  N   1.56127495103401      1.28408646172726     -0.89864976121897
  C   2.80905502325204      0.97121634998842     -1.28046201880988
  C   3.68840213189959      0.10926886153867     -0.70055346673611
  C   3.31843359024603     -0.77365361804823      0.35751859208074
  N   2.11579866770773     -1.22082696107262      0.61164688757350
  C   0.93924073650224     -0.86778918992533      0.05455991403533
  C   -0.00548030665304     -1.83877502192086     -0.14213180794043
  C   -1.39225997447448     -1.70200685743061     -0.36522563456133
  N   -2.03275945513432     -2.83591145680905     -0.74289501971536
  H   -1.50012863895021     -3.61308937131703     -1.08340075055253
  H   -3.01953793041376     -2.83674254722935     -0.93137117826377
  H   0.35481496409776     -2.85451662968776     -0.03440926874897
  N   4.32414135399983     -1.29187260537888      1.12479151502193
  H   4.02837098617594     -1.82135076403487      1.92758672162537
  H   5.15743522631244     -0.74504331725290      1.24521661199216
  H   4.72194241147342      0.12621807178515     -1.02068403563289
  H   3.16546187893680      1.57153403009100     -2.11146635272869
