30
Coordinates from ORCA-job ./opt_b97-3c_parallel
  N   4.17850380642907      2.38158335526774      1.41916906552609
  C   3.41315609540619      1.60144592922275      1.00942884790918
  C   2.55042498307705      0.62432045313256      0.48648801441964
  C   3.16187906844224     -0.53672067726701     -0.10352933620303
  N   2.58669519916716     -1.67925233104435     -0.45080369964524
  C   1.29729113651925     -1.98487177628433     -0.31153484706220
  C   0.13181833369606     -1.24781898030520     -0.19311045844789
  C   -1.06297906983974     -2.00533041265113     -0.01277653692588
  N   -2.15795916331350     -1.62353849957211      0.65880316399453
  C   -2.76825622253626     -0.47568321681160      0.54615438040544
  N   -3.89277958709672     -0.31916768049022      1.27337636931977
  H   -4.45381467772398      0.50780400234816      1.18479522346222
  H   -4.27837969899430     -1.11736452886072      1.74375458067457
  C   -2.38743941654502      0.61360509761595     -0.32480223635910
  C   -3.40417221086507      1.46645973185241     -0.77338924533567
  N   -4.24961899126312      2.18657086509378     -1.13433565916136
  C   -1.04532197900846      0.99916308135842     -0.49839664233785
  N   -0.82015857990225      2.24562726919759     -0.98550741670705
  H   0.04274913819969      2.43449903091499     -1.45978452793591
  H   -1.59990149321922      2.83757680083091     -1.21758787172425
  C   0.10994227942977      0.23507722908111     -0.12013666422521
  C   1.20379056156896      0.97047027173204      0.29012655285850
  H   0.99968542982154      2.01405337004146      0.49967297668287
  N   -1.14459921244455     -3.28853780222414     -0.44316020892930
  H   -0.55513239607217     -3.63385888291371     -1.17483755975116
  H   -2.01201042598556     -3.76499159808931     -0.27530694738323
  H   1.16728728875720     -3.06091056221748     -0.25583546532887
  N   4.48420602418114     -0.49078858185595     -0.33007489724848
  H   5.03797855049130      0.30083923227099     -0.05372493652166
  H   4.93603045032376     -1.32473686617345     -0.65891500001888
