29
Coordinates from ORCA-job ./opt_b97-3c_parallel
  N   -5.32959916499808     -0.79848277100634     -1.27518121295837
  C   -4.29330630028418     -0.54747953583958     -0.81384369024020
  C   -3.03935303453951     -0.21756579780056     -0.23668507156292
  C   -1.97191370323478     -1.02427892436512     -0.50822603880309
  C   -0.63710373145514     -0.86318521651559     -0.01963901540340
  C   0.11472653276050     -1.98501894318260      0.19794667024272
  N   1.33533727603786     -2.08529748009073      0.76530568193882
  C   2.29974091983315     -1.22560406241260      0.63370688756398
  N   3.42480448110250     -1.42487549113042      1.37533693574532
  H   4.27682768629267     -0.96486026202828      1.10709887776989
  H   3.52070368164064     -2.33611143874620      1.78982863955984
  C   2.33281252064524     -0.09505741944518     -0.29860996888096
  C   3.55366859202908      0.23111166060413     -0.91346853054515
  N   4.55950987675158      0.54172813216530     -1.41381675285513
  C   1.21966790339701      0.66943803094108     -0.58364032666044
  N   1.23981383283657      1.61898010075329     -1.53812817099448
  H   2.09383019176875      1.84327876606629     -2.02210242508929
  H   0.50358482891815      2.30097931934792     -1.55953120719179
  C   -0.05791929892495      0.48365955275462      0.13288877970983
  C   -0.64262033422260      1.53376228954414      0.76601953071359
  N   0.01581148001142      2.75541924602565      0.89888582494824
  H   1.01380186003908      2.70057462635057      1.02623410436514
  H   -0.40573931940363      3.39092893319221      1.55429370784559
  C   -2.01582228391768      1.54492750410863      1.23880368402114
  C   -3.05198808036511      0.85000964250472      0.74270350176328
  H   -4.03338765320813      1.09334130896396      1.13083212454314
  H   -2.24797035531639      2.29344034969566      1.98847007644991
  H   -0.35218753827765     -2.94387764507551     -0.00783007695103
  H   -2.17219700991594     -1.90872709737853     -1.10387455624347
