27
Coordinates from ORCA-job ./opt_b97-3c_parallel
  N   2.98871166862969      1.63294448010872      2.03391183152250
  C   2.06298673890790      1.63348987004873      1.33166979948208
  C   0.88512025495042      1.65749114740550      0.54236544468318
  C   0.35795681166134      2.91081598503997      0.27369266855262
  C   -0.80998501853004      3.24018206545020     -0.40041858097353
  C   -1.84789965808841      2.38835476365064     -0.70715788840364
  C   -1.99737227013316      1.03314379962873     -0.39580071737663
  C   -3.28374090483410      0.47928775426820     -0.63642077441024
  N   -4.34781209795142      0.07011862931398     -0.85676831402966
  C   -1.04435518967020      0.11397303399475      0.12401637891746
  N   -1.52864621817400     -1.00920434453258      0.62719417061031
  C   -0.94958741560282     -2.19383324209353      0.73514312731105
  N   0.02448124075584     -2.73886014172253     -0.01752461087079
  C   0.98423302813531     -2.01860789458684     -0.55318038979495
  N   1.82852233313165     -2.68389382325684     -1.35459251405821
  H   1.71761066771632     -3.67918952681859     -1.43095170005348
  H   2.66294980513981     -2.25682019297783     -1.71647523193344
  C   1.28519897960755     -0.60824277155220     -0.30990265979526
  C   2.59973933843712     -0.22454566016085     -0.65011829254546
  N   3.67675078153973      0.00205198058546     -1.02758939986122
  C   0.38795179906494      0.37753476667351      0.08875646460357
  N   -1.49062304160686     -3.02305963691110      1.64430748502334
  H   -2.35797967077280     -2.76522001632226      2.07860989751614
  H   -1.20168191722452     -3.98358737270135      1.65464791800026
  H   -2.71066439792036      2.83839045465089     -1.18057604830291
  H   -0.95331953513278      4.28512213655175     -0.63752369384547
  H   0.96438248696342      3.73995347086556      0.61501398423189
