21
Coordinates from ORCA-job ./opt_b97-3c_parallel
  N   -1.73222888985067     -3.07500330691177     -0.00038733322726
  C   -1.36076756350979     -1.97567133496371     -0.07923239227897
  C   -0.99243605515177     -0.61541502100960     -0.11767570411082
  C   0.31457197655277     -0.28305011751683     -0.44852769454245
  N   1.14410953117831     -1.14385633372411     -1.04380512591404
  C   2.41751295776168     -1.32437558790270     -0.80250954776000
  C   3.17401103179561     -0.77900177359452      0.24606536591398
  C   2.79306907259143      0.33751433092582      0.95774590116655
  N   1.84631612875831      1.21908196004620      0.63739013930428
  C   0.81975066445261      1.07341309413826     -0.15329237096709
  N   0.23643547486633      2.13712878912272     -0.72085191437427
  C   -1.06123330263074      2.28250890584164     -0.79509474933397
  N   -2.05450004031382      1.63047206773179     -0.19161668585222
  C   -2.00517245337939      0.36730558707970      0.20944382811749
  N   -3.07517953423254     -0.05899877728817      0.90177338153569
  H   -3.20033453873168     -1.03098803928638      1.12328989039187
  H   -3.86732710482625      0.55608808285671      0.95906965910719
  H   -1.39002410269038      3.13974481191573     -1.37451776727913
  H   3.37157850214191      0.61254652459158      1.83339776748697
  H   4.11928064591250     -1.24535921235159      0.48815262334780
  H   2.90618327410555     -2.02394863600101     -1.47388919613153
