27
Coordinates from ORCA-job ./opt_b97-3c_parallel
  N   -5.27807821796864     -0.35050207850485     -0.42295774527271
  C   -4.11852427770317     -0.30349262631608     -0.32896326691006
  C   -2.72180569147638     -0.16868408957483     -0.19364575367215
  C   -1.92807567956305     -1.26910620011173     -0.45177580658421
  C   -0.56098494288259     -1.45853943091961     -0.33953535581337
  C   0.50047988583381     -0.60440412570540     -0.02821419922101
  C   1.76467608324037     -1.23875761787395      0.22285084074141
  C   1.74720103899801     -2.64058891475362      0.44252210652502
  N   1.76636894506246     -3.78740226990395      0.63424740821505
  C   3.06816686903015     -0.71535685316894      0.27700373467258
  N   3.57759197056224      0.47274295070562      0.06852354178689
  C   2.81433759024002      1.56292607393060     -0.15035195152876
  N   3.56638677101542      2.66017236751658     -0.41246979809877
  H   3.15911208871127      3.51019558761272     -0.75293054421282
  H   4.55433127169469      2.52023120655319     -0.52412453485450
  C   1.43013868422829      1.73442828906789     -0.07273546526257
  C   0.35476471526496      0.84149741736824      0.05748319141699
  C   -0.88585169255251      1.47849786878307      0.29635521077674
  C   -2.22008434579254      1.10648301462803      0.22991145494704
  N   -3.14730156783522      2.03433868968948      0.57467093536617
  H   -4.12610211547785      1.85684982726427      0.43404966194119
  H   -2.87521958464034      2.98154899841046      0.75629210473485
  H   -0.76437423448554      2.52179148950418      0.56531392684803
  H   1.12632602508248      2.77239573774831     -0.13833088656865
  H   3.82254209943650     -1.46426412169637      0.50071147010880
  H   -0.26707236344793     -2.48193613712792     -0.52270666509706
  H   -2.47274602577519     -2.15308591552801     -0.75857212858404
