26
Coordinates from ORCA-job ./opt_b97-3c_parallel
  N   -5.26520695141405     -0.16830822673536     -0.06660838568870
  C   -4.10621995354489     -0.25880127571357     -0.13062140108452
  C   -2.69998241641692     -0.31136485934907     -0.16492689026699
  C   -2.09339427950627     -1.37718000526298     -0.85142299060471
  N   -0.86739011182925     -1.80265959993891     -0.81610954942993
  C   0.22632951735064     -1.31544139262546     -0.20006457462539
  C   1.11777202007757     -2.25186100945600      0.29701317235230
  C   2.41745893556695     -2.06753557055039      0.76773426017188
  N   3.27614409037196     -1.08789990916750      0.61555745609928
  C   3.01099074181648      0.06945758266090     -0.02644035277833
  N   4.13293668343543      0.72653139154579     -0.37989613382729
  H   4.10927881019375      1.65160675509053     -0.77058373475770
  H   5.00366915226656      0.35667121007014     -0.04434583984985
  C   1.75641180109717      0.67979614863670     -0.27961364624583
  C   1.81211699687070      2.02652535508146     -0.68541276234253
  N   1.91148422201039      3.13730947012810     -1.02384012762296
  C   0.44727398912670      0.12469553275767     -0.07360699177432
  C   -0.58660962210675      0.99338977421484      0.22426293768335
  C   -1.97863758817090      0.80468702972030      0.33079458656622
  N   -2.68396796334808      1.81626985518610      0.88143328063314
  H   -3.68928948425300      1.80707081918026      0.86306496501940
  H   -2.23776425333486      2.69081030612692      1.08620226927409
  H   -0.26739473193238      1.99977247334432      0.46511252694065
  H   2.83622969607637     -2.91978612082121      1.29721351137008
  H   0.74061178224694     -3.26637645040371      0.32342310825869
  H   -2.75326037703848     -1.96033302181111     -1.48807307816882
