27
Coordinates from ORCA-job ./opt_b97-3c_parallel
  N   5.10353332646817      1.10396504361535      0.44568754211966
  C   3.94687882036549      0.98480574530965      0.39532730614739
  C   2.55199937606218      0.78400557428531      0.30258252745614
  C   1.73993276938688      1.79783083965594      0.81859018060730
  C   0.38249156716308      1.98823753997405      0.75831850586748
  C   -0.60437768325749      1.14679087072246      0.21921435610583
  N   -1.73756825137896      1.70952037395688     -0.16298464445301
  C   -2.89687971478115      1.11758114232997     -0.48119119349134
  N   -3.45165607104570      0.00520195668924      0.00070852421199
  C   -2.67540040603840     -0.91136611842090      0.58310481060865
  N   -1.36822204940943     -1.14664878981990      0.43893944061035
  C   -0.40291884036826     -0.30871952333110      0.11022129170509
  C   0.79578925192521     -0.89933677755142     -0.36721562091905
  C   0.64824797744581     -2.23201041333619     -0.81974769650340
  N   0.62976634355314     -3.31889762032531     -1.23346124752348
  C   2.13083708510483     -0.41399793155110     -0.34064760954047
  N   3.08418190912823     -1.18173358193352     -0.90734900697986
  H   4.05513480782363     -0.95576729959250     -0.77978247392033
  H   2.86135928615929     -2.10134128252066     -1.24654907128573
  N   -3.31809970204830     -1.80977192901765      1.35850470962964
  H   -2.84063364854378     -2.66221555545640      1.58799005258759
  H   -4.32161109477613     -1.80355408451963      1.35207182529175
  N   -3.66294227967441      1.82169794906533     -1.34012325106847
  H   -3.40768274029609      2.76989186059520     -1.54429510934775
  H   -4.61122791910248      1.52690965785391     -1.48379615399429
  H   0.01334252666042      2.95401935270391      1.07730376722268
  H   2.29249954696947      2.61188950312270      1.27031141084951
