27
Coordinates from ORCA-job ./opt_b97-3c_parallel
  N   5.27876730043312      0.24354961481611     -0.65412440598851
  C   4.12488294489987      0.30021912551569     -0.49693952973457
  C   2.73654750282586      0.30294653201309     -0.27697583240618
  C   2.00808895750587      1.46175944352254     -0.54001619440198
  C   0.67716383437910      1.74189052582686     -0.34215761281203
  C   -0.40969504755887      0.90887199684385      0.00503035148130
  C   -1.62620162250945      1.53651335859030      0.24994625091128
  C   -2.93880484186513      1.03523894226798      0.31552635117184
  N   -3.43075128459060     -0.15030650606318     -0.03476507748515
  C   -2.68013443733969     -1.20450434903824     -0.34617358017647
  C   -1.29653437323211     -1.41972765967541     -0.21337042088533
  C   -0.25088780758923     -0.55018516605576      0.07007228219790
  N   0.88601941534480     -1.16327092339729      0.43625654669301
  C   2.15532260131502     -0.83693890853578      0.37020114788316
  N   2.99755611811624     -1.70057463062509      0.98982900813072
  H   2.62555217100251     -2.58934893075437      1.26889931017205
  H   3.99230137664496     -1.60333173383431      0.89408779897329
  H   -0.97832551067312     -2.45223776654666     -0.28324360458800
  N   -3.41331049623810     -2.25460906293395     -0.81548562064892
  H   -2.99987565727463     -3.16629718693303     -0.87276502041945
  H   -4.40544584780969     -2.20891342555545     -0.66608730167399
  N   -3.90103098987800      1.89992941115055      0.75503596499241
  H   -3.69921925627693      2.88072799734572      0.81221015959331
  H   -4.85065353126481      1.64387255263887      0.55012152363231
  H   -1.55774146333561      2.61244259165824      0.36426385289509
  H   0.40078384390716      2.76953881873564     -0.54211365691407
  H   2.59636162086263      2.28689567071348     -0.92258374229110
