30
Coordinates from ORCA-job ./opt_b97-3c_parallel
  N   3.98037329977036      0.29010770730728     -0.65169116919540
  C   2.62006003572379      0.22707451909038     -0.33441892536204
  C   1.79136716200521      1.24408152534978     -0.71349182612623
  C   0.44133938717443      1.45545168841719     -0.28937035158166
  C   -0.43692813029057      0.47530617987249      0.05928781975031
  C   -1.74720627849965      0.79751786627300      0.66398455918499
  C   -2.92858028061335      0.38006871248022      0.12527056506137
  C   -3.09381299996297     -0.55693843003911     -0.93260240482721
  C   -2.22707884437054     -1.52490717278528     -1.33823658253572
  C   -0.95785375373037     -1.81431632387688     -0.75818206105220
  C   -0.15582607389231     -0.95065384075246     -0.08567725964388
  C   1.03581353321680     -1.44046273322618      0.63109390244010
  C   2.26884153363202     -0.88890087379204      0.49406998633516
  H   3.09276628980087     -1.34834914571924      1.03088728672673
  N   0.83497068920402     -2.56002017310151      1.41353677669537
  H   1.51406267245557     -2.73585749884690      2.13634077122238
  H   -0.11432087952591     -2.70047744528909      1.71409641303644
  H   -0.60637935731169     -2.83613418335657     -0.86034897017126
  H   -2.57882227578702     -2.21819619587259     -2.09343036828264
  H   -4.07144336954317     -0.55514367520746     -1.40374152491348
  H   -3.84276881092492      0.77585145045432      0.55990610564767
  N   -1.69259646917268      1.52552640485651      1.83390710795074
  H   -2.57208276740871      1.87762345373592      2.17744465802798
  H   -0.95235880848050      2.21127781843313      1.86388570962358
  N   0.02582944031540      2.80416745998794     -0.19805466324594
  H   -0.90299573124412      2.95332161654712     -0.56781343864245
  H   0.67524582733280      3.44122011709077     -0.63009179408554
  H   2.22971660793418      2.03481668433573     -1.31634904449036
  H   4.20991525640442      0.97879026765381     -1.34988891128580
  H   4.38983581288874     -0.60240584482056     -0.87827348506131
