25
Coordinates from ORCA-job ./opt_b97-3c_parallel
  N   -5.51163105706748      0.22377127619798      0.29250393575511
  C   -4.35402917665191      0.20523968914828      0.19291162382134
  C   -2.94656299475423      0.20268087178118      0.06855396554806
  C   -2.18733187962575     -0.57304833946971      0.94186640815588
  N   -0.91720426838470     -0.90681090204516      0.83566701591733
  C   0.06993309870259     -0.37037277353569      0.14521494533081
  C   -0.04501082625723      1.02751186933299     -0.34318683260261
  N   -1.12382386649438      1.32291930654230     -1.10539178058963
  C   -2.35920989171003      0.95068264106871     -0.98351140571377
  H   -3.01861364620897      1.28283948124082     -1.78000592319801
  C   0.90674617593795      1.97389601246593     -0.11141469776272
  C   2.24558198890848      1.71170213839207      0.29996643234990
  N   2.96124951757187      0.61691970339745      0.11047862319592
  C   2.52941811132271     -0.58114204210047     -0.28146312966988
  C   1.21666548707742     -1.13016016799038     -0.14142633353696
  C   1.10421150827109     -2.53439684336205     -0.13766007506839
  N   1.09189662894389     -3.69712425693568     -0.18028216374577
  N   3.50272950786394     -1.39350350534161     -0.73663740510998
  H   3.32331888354693     -2.36866262941064     -0.90208469410983
  H   4.45330416629603     -1.09655896475228     -0.60954481293421
  N   2.93802726659070      2.75486733353834      0.80871089165455
  H   2.46480057905863      3.57429102189598      1.13880492931184
  H   3.89424998449925      2.60855101902428      1.07791223500101
  H   0.65749741197412      2.99625003006046     -0.36616954984815
  H   -2.70177716021063     -1.03536036614244      1.77771159194783
