30
Coordinates from ORCA-job ./opt_b97-3c_parallel
  N   -4.23006262794927     -1.66310563139251     -1.86823323001670
  C   -3.42786282122620     -1.05713673737147     -1.28373645498035
  C   -2.43832768645187     -0.34080508135254     -0.56555257478240
  C   -2.69727550524486      0.97351753166679     -0.25242522222966
  C   -1.92243681717630      1.85943275404390      0.51909622736657
  C   -0.57655982214555      1.77112790787000      0.77855188635489
  N   0.02090490071422      2.60734391385844      1.67629485214330
  H   -0.51335083323019      3.38367308851464      2.02945516884733
  H   1.00043573743923      2.79603404091967      1.52926499274476
  C   0.30492239775013      0.77708461187008      0.14350628918800
  C   1.46284701099128      1.14202019971510     -0.47777648852923
  N   2.40529256144333      0.32562011004345     -1.03385499126910
  C   2.72818385298636     -0.84773797297929     -0.56193848074121
  N   3.83259394515166     -1.43539115207810     -1.13791502131258
  H   3.85036801054318     -2.44006192477178     -1.16816657157181
  H   4.13545262959904     -0.98576888964474     -1.98626634130910
  C   2.16607141017604     -1.57008544455534      0.54493377333367
  C   0.86791658225286     -1.49981401748030      0.94352253878513
  N   0.37598917165394     -2.30388939249128      1.93332471378295
  H   -0.48925675619280     -2.02127749507509      2.35793555103530
  H   1.02788681156587     -2.75616325435992      2.55200475333621
  C   -0.11338189214157     -0.61741683117299      0.28552456135986
  C   -1.32006230178035     -1.10436955898737     -0.07762275347871
  H   -1.48387159448691     -2.17164806910852      0.01343734130601
  H   2.82095635527082     -2.28031625809251      1.03734156050156
  N   1.78660932102497      2.50343845223941     -0.62664052273483
  H   2.55468180487489      2.59779454857692     -1.27352195319961
  H   1.00591163905376      3.07254781875636     -0.92244987535983
  H   -2.45233770180697      2.71104346523182      0.93379731397907
  H   -3.66162774505946      1.35247700510803     -0.56941622354941
