24
Coordinates from ORCA-job ./opt_b97-3c_parallel
  N   -1.20949286738434     -3.13239187620399     -1.14009339102898
  C   -1.12945248910312     -2.02541976248888     -0.79046268427309
  C   -1.16708795241101     -0.67194814704862     -0.38932661294787
  C   0.09867313681457     -0.08341070244048     -0.09171458847527
  N   1.06984583847805     -0.91070710172844      0.22488307382322
  C   2.38757242070787     -0.66562320013852      0.31237507106181
  N   3.15359632405193      0.18766114691310     -0.37315024121115
  C   2.58566839580637      1.21483178436384     -1.00414357463762
  N   1.42415477329023      1.79603104297393     -0.85559359769538
  C   0.33438535519440      1.36641184012577     -0.18229726665372
  C   -0.52457033601894      2.30597735327933      0.35080611510161
  C   -1.86370222858053      2.14505282344031      0.71026335949188
  C   -2.72439006309956      1.10569795239652      0.47661609500183
  C   -2.45222660760354     -0.13641361678778     -0.14095084248854
  N   -3.52891989563063     -0.89624455507017     -0.46296780342944
  H   -4.43484363925938     -0.63595797764017     -0.12170840925202
  H   -3.40718320931997     -1.85552245339457     -0.73982219757176
  H   -3.76120915077044      1.27250108741626      0.74200042501898
  H   -2.31962575014413      3.01846915125005      1.16194551606918
  H   -0.12123757328442      3.30931522548869      0.40638017016756
  H   3.23523739506834      1.70268661633633     -1.72600161068325
  N   3.04435585900314     -1.49450159924672      1.15048564765599
  H   2.57151585258019     -2.31872080846687      1.47348041323047
  H   4.04767775641862     -1.48949849652985      1.11796354122764
