24
Coordinates from ORCA-job ./opt_b97-3c_parallel
  N   3.18110591877557      1.63319966374547      0.97190160554201
  C   2.38041195130047      0.72820320757441      0.31763041765224
  C   1.05103447694365      1.14852051551504      0.06435402048710
  C   -0.04257562530524      0.40694775561027     -0.31319483570558
  N   -1.16082329136573      1.08293221246268     -0.69495111122623
  C   -2.38217588797846      0.85780321476566     -0.29866010899758
  C   -2.83290167659338     -0.15086206280068      0.61902334001990
  C   -2.20865589347568     -1.35122473505505      0.77757425991312
  C   -1.00804878854216     -1.81110910797630      0.20392782184066
  C   -0.00588244917541     -1.05923703708649     -0.36301140383996
  N   1.01706657416315     -1.70537228638532     -0.98842278970309
  C   2.28742031001929     -1.44452932968694     -0.85568440532791
  C   2.94506873689589     -0.47191515822174     -0.09415693456273
  H   4.01391150586396     -0.59623457771122      0.03303052148541
  H   2.93517040062859     -2.11081470814628     -1.42352370835012
  H   -0.81698736467313     -2.87612054380942      0.24399993209009
  H   -2.73899813838831     -2.08208259416149      1.37858836758369
  H   -3.80690969162080     -0.01412171968437      1.07210212352973
  N   -3.34522589293142      1.65876131131415     -0.84354837068772
  H   -4.27083752825365      1.65349414327023     -0.46016458312999
  H   -3.03942453349694      2.49993583599983     -1.29827263163865
  H   0.84633953101737      2.20538684161057      0.19388898554749
  H   4.17556083853279      1.51456534731682      0.89228285781405
  H   2.88283138285973      2.59217573853966      0.98545473536397
