25
Coordinates from ORCA-job ./opt_b97-3c_parallel
  N   -5.16729546328262     -1.35950172760414      0.96218316123424
  C   -4.13689225733695     -0.96181633898283      0.60413738373457
  C   -2.86891128260131     -0.51565710574328      0.16593688343324
  C   -2.17279256331216     -1.30705822158972     -0.81279284384287
  N   -0.92313696936576     -1.24275024097722     -1.06817468884914
  C   0.06466108609525     -0.56969448530488     -0.42603458022037
  C   1.14379865738746     -1.31834540265540      0.05421965772831
  C   0.92440373100090     -2.71988831717215      0.15294182040940
  N   0.76172601489953     -3.86389647530893      0.25596052610149
  C   2.43343974915139     -0.86976808050156      0.40136387205232
  C   3.00849425114269      0.35940159019395      0.16791982537905
  C   4.37785486341020      0.51147337568173      0.51513124129437
  N   5.49515587103810      0.65350105478014      0.79450798742098
  C   2.38367916345479      1.48487822594097     -0.43969945673713
  C   1.06278758544904      1.70583382407350     -0.66618034088671
  C   -0.04758633538539      0.86502502423646     -0.34648703062339
  C   -1.27334721123195      1.43367566743714      0.04293055313058
  C   -1.29464896579552      2.84292874010044      0.21501190982018
  N   -1.31191437008037      3.99583458653956      0.35043996487112
  C   -2.45949474530449      0.76884206697698      0.44264516292349
  H   -3.16723381192764      1.38779769174944      0.97772706888364
  H   0.80739487645508      2.68141717813948     -1.05998597254222
  H   3.04918662387052      2.29907447710392     -0.69361572131992
  H   3.07920591791538     -1.62695580696169      0.82352963459371
  H   -2.77010026244837     -1.94923835555187     -1.45337889198721
