28
Coordinates from ORCA-job ./opt_b97-3c_parallel
  N   -5.03940730357528     -2.02164895716174     -0.20095126516137
  C   -4.09386532025403     -1.34309476390547     -0.15452685003100
  C   -3.00415396489308     -0.44966961060207     -0.09109675209693
  C   -1.73285776861836     -0.99185863105996     -0.07825062528727
  C   -0.44148568825890     -0.43915070813172     -0.02446295399510
  C   0.55205849730542     -1.40385007777195      0.00424601974027
  C   1.95825080493252     -1.38493901875496      0.04575307211022
  C   2.59827261818665     -2.64180233352112      0.09583851473531
  N   3.18651915105110     -3.64600346297459      0.13858607863231
  C   2.81787078374976     -0.26200268022471      0.01862711637756
  N   4.13291179303741     -0.47346806074614      0.04609004885870
  H   4.78190980195558      0.29620268391472      0.02275073886676
  H   4.50312463902334     -1.40953097857680      0.08551625784180
  C   2.38293893999281      1.10974863608205     -0.04138690594148
  C   3.41286884732336      2.07539729522001     -0.07626483766052
  N   4.30443452748363      2.82406083892472     -0.10290738230249
  C   1.08384451453875      1.59488661219846     -0.04806907871098
  C   -0.19413092574464      1.02255688841234     -0.02171595272820
  C   -1.19755924439621      1.99759873598073     -0.01085485367262
  N   -2.52509192369961      2.00872976170897      0.05342884422307
  C   -3.33163279230073      0.95765703740247      0.03872088173037
  N   -4.62483531300463      1.26357910101848      0.15819698630982
  H   -4.86877084059275      2.23569956200690      0.24062649918545
  H   -5.34738163632167      0.56341165229246      0.15652667237205
  H   -0.81259173170340      3.01234957596185     -0.04316816355420
  H   1.06493871149330      2.67686812815946     -0.07294117802016
  H   0.17409583368052     -2.41758328362655     -0.00225609478478
  H   -1.74431131459086     -2.07333701572598     -0.11470575633626
