28
Coordinates from ORCA-job ./opt_b97-3c_parallel
  N   3.99830165893769      2.01892966979319      1.71415666288334
  C   3.24392240170594      1.29386934933403      1.20646488668499
  C   2.31073979392583      0.43184090765606      0.58090906998068
  C   2.68703740995127     -0.87104302343094      0.35214347410783
  C   1.97899984828749     -1.88835789037600     -0.30858846598238
  C   0.62174192385451     -1.97434199765194     -0.51679201355859
  N   0.09893120578576     -3.07304943515743     -1.12995888822118
  H   -0.85030726181485     -3.02801887219456     -1.45212623509220
  H   0.70762684271352     -3.70078751749098     -1.62551013035271
  C   -0.35420913818520     -0.99604870570124     -0.02671174847197
  C   -1.50373327592164     -1.41679681237725      0.56278459415926
  N   -2.52440678952834     -0.68842587507753      1.08426663891385
  C   -2.91133052733257      0.45789908404199      0.59899437762342
  C   -2.40375066192541      1.16716269917819     -0.54860024087274
  C   -1.10519082481946      1.18156495271486     -0.94766709861936
  N   -0.67980140317911      1.97846771965833     -1.97669822905093
  H   0.20324969550849      1.74510027991559     -2.39490120771411
  H   -1.36810599030829      2.34772237945802     -2.61061006599247
  C   -0.04341884603531      0.42151036675512     -0.25704807440987
  C   1.10975485833319      1.04052468491823      0.07424042164010
  H   1.15722155068120      2.11359434271383     -0.06857602210617
  H   -3.11147791342027      1.79796453795272     -1.07596019582666
  N   -4.03622669850278      1.00710879016006      1.17209370391708
  H   -4.10599063516836      2.00998748066099      1.17152150659579
  H   -4.30541776354633      0.56724070261369      2.03720124279456
  H   -1.60594812677563     -2.48309686646707      0.74280800564862
  H   2.57112270815832     -2.74141595371745     -0.62203864951290
  H   3.69477180592255     -1.13005593078162      0.65413895393440
