23
Coordinates from ORCA-job ./opt_b97-3c_parallel
  N   -3.95243358502247      0.33272392228285      0.62532870772652
  C   -2.69278748821091     -0.01828830609175      0.19920515247106
  N   -2.25727638595974      0.79916385381773     -0.82764737233292
  C   -1.04598955033787      1.14807018936197     -1.03193447970242
  C   0.14312989522728      0.80825532867361     -0.23989010351255
  C   1.06745294980260      1.75949082153912      0.04122228037193
  N   2.18462152351835      1.63771096419479      0.82234774178689
  C   2.85013419361051      0.53080123507694      0.91217999032558
  N   2.77759258877739     -0.61352751978313      0.17506396803703
  C   1.66989143986145     -1.10919974866203     -0.27826914357762
  N   1.73206959527480     -2.19614135326459     -1.08388235717126
  H   2.63288702614800     -2.46473853764949     -1.44247764234143
  H   0.91592215366486     -2.47289857512962     -1.59646284783771
  C   0.31138409377838     -0.61013825479708      0.04874103904305
  C   -0.67928256784036     -1.45050620399742      0.44274929737126
  C   -2.03750283988412     -1.11873106062865      0.68150517125655
  H   -2.61822143236199     -1.82573722566709      1.26309850991704
  H   -0.40416388005787     -2.48264223042223      0.63107112660367
  H   3.68858783604503      0.54098104542424      1.60315252374967
  H   0.86722438560936      2.77491314533532     -0.28983624604331
  H   -0.88296194606199      1.75931060204907     -1.92014857317216
  H   -4.51004699201521      0.81327359881113     -0.06068031171712
  H   -4.45492833236624     -0.34593058807400      1.17094978834753
