25
Coordinates from ORCA-job ./opt_b97-3c_parallel
  N   -2.11995186403008     -2.68972558354951      1.76577816102174
  C   -1.96584187445007     -1.68952000122254      1.19175799114400
  C   -1.76089229182210     -0.47958750586176      0.48565113500292
  C   -0.39066957740460     -0.22505595087876      0.04803263390590
  C   0.42029535866176     -1.29289329778895     -0.20482929194733
  C   1.81489048247509     -1.34437665016033     -0.51132218022193
  N   2.24339096227522     -2.52673867736581     -1.04033552419209
  H   1.64200506250798     -3.32818393383606     -0.98637703953370
  H   3.22669528090426     -2.72757688467939     -1.05611160074770
  C   2.73557356985615     -0.34426797640641     -0.28588843744835
  C   2.42886793940477      0.88737387103984      0.33385787122850
  N   1.28363752072877      1.53522019966209      0.36430376522327
  C   0.06207365865549      1.16275351761300     -0.02938667721560
  C   -0.76214133925622      2.18400171246353     -0.51493240421132
  C   -2.11861639727861      2.19201249746881     -0.81268539206361
  N   -3.10480324068097      1.37544201890061     -0.47475601491463
  C   -2.90428640662652      0.25604459553454      0.22218726961124
  H   -3.81964804734417     -0.17764614256887      0.61427954548718
  H   -2.45581452901767      3.06549251309800     -1.36590779418652
  H   -0.23045005450693      3.10466525341666     -0.72226089891720
  N   3.47114546531243      1.56660828534041      0.90122076372133
  H   4.25327839180189      1.04544455980091      1.25312035135278
  H   3.21924496254413      2.39466289099900      1.41340658600858
  H   3.78021409122019     -0.55495680810878     -0.47940871477147
  H   -0.06987596233022     -2.25846411201014     -0.19692600113606
