24
Coordinates from ORCA-job ./opt_b97-3c_parallel
  N   4.39795499069569      0.63113817211496      0.39577380151017
  C   3.34036379843435      0.21151238881946      0.15024507066367
  C   2.02993900845845     -0.23540286886417     -0.11998288887511
  C   0.98138637307268      0.53907929148916      0.35529103792160
  N   1.18173042099605      1.57866773812897      1.18595816272994
  H   0.44499476197067      2.24869891184990      1.32162025560945
  H   2.11469736386468      1.84542522200788      1.45536510400623
  C   -0.40387705289408      0.24914623069306     -0.04006408943924
  C   -1.24849995005167      1.21325624707504     -0.53597733689947
  N   -2.53937307012936      1.00096343576675     -0.94357145609589
  C   -3.32543331615687      0.10220931639315     -0.44104839647806
  N   -3.16635974623912     -0.61982625634622      0.70611671801050
  C   -2.04462023873230     -1.12476920616991      1.05377236369120
  C   -0.83599268565956     -1.11606667083843      0.20526828484842
  C   -0.16975814846792     -2.23072895800853     -0.15188854931479
  N   0.95301660094749     -2.32111897990416     -0.93281467103395
  C   1.89052052622554     -1.43457667540293     -0.92134851202720
  H   2.74757827369481     -1.65569424505156     -1.55301313540654
  H   -0.58243784891484     -3.19306698600623      0.13474696788535
  H   -1.97121346454341     -1.52639742124526      2.06356132614509
  H   -4.30587467645428      0.01119995426148     -0.89568108925138
  N   -0.82820153757726      2.52708681125302     -0.72787139041913
  H   0.11721503512516      2.62920768033296     -1.06477393089763
  H   -1.48077537296474      3.02971161515351     -1.30930564398356
