24
Coordinates from ORCA-job ./opt_b97-3c_parallel
  N   -4.94696923222423     -0.26828262110819      1.04339635115419
  C   -3.83812681034442     -0.04090861600515      0.77501051705077
  C   -2.50058908916871      0.18794596367448      0.39430766236512
  C   -1.83447344164792      1.29282315319303      0.90109759772336
  N   -0.70541250256160      1.84144963877749      0.48516602521285
  C   0.25619518541675      1.29822798253989     -0.22418016734984
  N   1.07497292533732      2.07657691421589     -0.92494329389148
  C   2.36069639056476      1.87726680663275     -1.08651783579080
  N   3.20933879432880      1.10848529190778     -0.41816547545139
  C   2.87036558703837     -0.00326575436968      0.23062133134581
  N   3.84524868706249     -0.54495318094178      0.97908562695262
  H   4.76439422527786     -0.14635736751372      0.90633244573381
  H   3.74357515577279     -1.45483482099562      1.39291351247175
  C   1.63381528617495     -0.73439956940802      0.10850674001550
  C   1.66058601534226     -2.11113696766614      0.41088112796799
  N   1.75361176742337     -3.23472000052484      0.69674430428295
  C   0.41116441636022     -0.17031722237660     -0.26960911674711
  N   -0.59432628341271     -0.93993019975408     -0.66116410532254
  C   -1.88963796820744     -0.74170928811023     -0.52697362151969
  N   -2.69007873216915     -1.54267730227611     -1.25098168590805
  H   -2.27431260762570     -2.32390709686332     -1.72604603617719
  H   -3.68486840078636     -1.54044393958260     -1.11174095066648
  H   2.83079204388348      2.52180847916833     -1.82258132576355
  H   -2.33529696895522      1.84147954009635      1.69136479939657
