34
Coordinates from ORCA-job ./opt_b97-3c_parallel
  N   -3.23051442273839     -2.75249116263850     -1.46368783710974
  C   -2.48560323733743     -1.99316423281357     -0.98718403728386
  C   -1.54706063129369     -1.12372795965821     -0.40166715686404
  C   -2.05922175387768      0.00672419032664      0.34885385248094
  N   -3.30474558171055     -0.15482006574753      0.87200667606443
  H   -3.85291830672041     -0.94826972034851      0.59266924824134
  H   -3.82014677896945      0.65675427085868      1.16712887162052
  C   -1.38098985925807      1.20439779983920      0.54535594251535
  C   -2.05277981535157      2.20122375775990      1.27638176260977
  N   -2.63842664996897      3.02104863544503      1.86359287516351
  C   -0.11942955744677      1.57819603424924     -0.07437854204311
  N   -0.01329244289158      2.90986098521120     -0.50891700913295
  H   -0.75332132101046      3.50544919096220     -0.17191798584471
  H   0.88398479929616      3.32333675602102     -0.30181028121137
  C   0.88931409164313      0.70147744450004     -0.28841625930917
  C   2.07182648841820      1.05922424212877     -1.09178913729498
  N   1.83332964248912      1.53071073734681     -2.35312405809340
  H   0.95925389677446      2.01514050692921     -2.48463505240967
  H   2.60865775455588      1.92806707699349     -2.85741548290908
  C   3.33867867408584      0.91239630489462     -0.59504156676032
  C   3.67498442561110      0.32453404624554      0.64778503422647
  C   2.97417090731753     -0.56597252142948      1.40410927653441
  C   1.76330144124438     -1.22933635941166      1.02253608035621
  N   1.60354133496424     -2.53614629478882      1.50289700240216
  H   0.65959241485564     -2.77720207612311      1.76215890843767
  H   2.24957870152484     -2.77953299795809      2.23490403692755
  C   0.84334889092993     -0.69108701720928      0.16302488937984
  C   -0.20899401036677     -1.49975179219101     -0.45095303278320
  N   0.17153241418759     -2.61361921893852     -1.10433235475168
  H   -0.51073945731829     -3.26787147815619     -1.45204983970487
  H   1.10142352124795     -2.95718077672529     -0.94442191101303
  H   3.45260886789077     -0.92657099095253      2.30818063067701
  H   4.65967075255306      0.58317679511220      1.02356253522389
  H   4.16099534477105      1.31378628806457     -1.17847124794111
