24
Coordinates from ORCA-job ./opt_b97-3c_parallel
  N   -1.20418453021993     -3.14196144612335      1.12015977348500
  C   -1.12581755170015     -2.03219915930304      0.77909429174351
  C   -1.16552775504426     -0.67563749162730      0.38868767331569
  C   -2.45177486788775     -0.13914642075210      0.14810377863970
  C   -2.72659620568628      1.10738263072194     -0.45920428271548
  C   -1.86722462164129      2.14898402362311     -0.68777323388019
  C   -0.52716134780629      2.30815377078874     -0.33113319982452
  C   0.33391178019043      1.36540069954900      0.19296153998885
  N   1.42511034098349      1.79107624837536      0.86636497174136
  C   2.58737735803747      1.20961674007587      1.00813750072367
  N   3.15446380569455      0.18720913623806      0.36878689226775
  C   2.38740895236347     -0.66170371666341     -0.32108746197163
  N   1.07004967476575     -0.90814940444164     -0.23257359324880
  C   0.09902157100827     -0.08389421151689      0.09246417821482
  N   3.04293219277407     -1.48427692872699     -1.16633385492461
  H   4.04631958757737     -1.47869562692811     -1.13621998786451
  H   2.56982974071599     -2.30625464364352     -1.49459802373264
  H   3.23834224063594      1.69295606178709      1.73177309154096
  H   -0.12461497959737      3.31211973252375     -0.38071060864508
  H   -2.32504266816182      3.02540809057915     -1.13164212713185
  H   -3.76432850862735      1.27555673482102     -0.72012098773626
  N   -3.52700552647672     -0.90217141692630      0.46760800855829
  H   -3.40364412737207     -1.86358289629805      0.73625022561424
  H   -4.43389888682845     -0.64037397732981      0.13006841384353
