32
Coordinates from ORCA-job ./opt_b97-3c_parallel
  N   -4.44536156485168     -1.93548809592632     -1.54114726175332
  C   -3.59564529523811     -1.36293026284865     -0.98625392238638
  C   -2.61012342400212     -0.61367080762784     -0.31296266279472
  C   -1.55041420173212     -1.34506788404376      0.30754000815852
  C   -0.30333880953157     -0.91209996337259      0.63359356945016
  C   0.59362050694022     -1.82898047780538      1.29394165373819
  C   1.93251575570621     -1.91129859516468      1.16261453644484
  C   2.75047920276950     -1.23516205979468      0.18859831574782
  N   3.94978501844725     -1.83559799910247     -0.05072506601948
  H   4.04387172558560     -2.81154174673317      0.16455961927532
  H   4.51355035566432     -1.50773461767011     -0.81733755199429
  C   2.41337210462692     -0.06688963694256     -0.48001991821047
  C   3.30778394583790      0.36797046603763     -1.47491498866931
  N   4.07514402906942      0.71120229731241     -2.28352668988975
  C   1.32445090661326      0.84019413660882     -0.12345219494537
  N   1.60467017086150      2.20121116195139     -0.32288390769033
  H   0.82003031179976      2.72568797550114     -0.67948905054654
  H   2.42479271157611      2.37590605112623     -0.88176218823002
  C   0.13986177240633      0.47171764660898      0.42442982688113
  C   -0.76032207014599      1.50299681911229      0.98565507563370
  N   -0.20093491516580      2.31374890212576      1.93558736695139
  H   0.78695125350134      2.48678138667379      1.83842520641738
  H   -0.73100009308538      3.11511333183103      2.23613990251663
  C   -2.06814679549562      1.63890405423518      0.63231848934719
  C   -2.84475383808871      0.75759844216860     -0.17909638427014
  N   -3.93959597171023      1.31033478346819     -0.77629613292637
  H   -4.22964650440566      2.22823257005161     -0.49600256684722
  H   -4.66490262225830      0.70635926130435     -1.12564168174273
  H   -2.60403975908649      2.49581820189234      1.03056618206795
  H   2.44355482490639     -2.66919296695169      1.74416922470634
  H   0.13578759409414     -2.55997157394602      1.95309700410909
  H   -1.76771799900933     -2.39104965678066      0.49145014967076
