24
Coordinates from ORCA-job ./opt_b97-3c_parallel
  N   -5.23782586590000     -0.60180599823507     -0.75593082580056
  C   -4.10158163811470     -0.49644492601586     -0.53900378234247
  C   -2.71467639262058     -0.38965748191818     -0.27287380416081
  C   -1.98799169029421      0.55635036442847     -0.96280051106385
  N   -0.75970011047884      0.98426305967974     -0.67530662847138
  C   0.24198050011412      0.43143297158225     -0.07002397227069
  C   0.32686516131565     -1.00137150571317      0.24948321682960
  C   1.44797047595685     -1.75433146743932      0.09389478096185
  C   2.75188851020624     -1.29802969571605     -0.30005611664181
  N   3.29580164308318     -0.11577450008022     -0.08680172325657
  C   2.65728327572384      0.95840392214831      0.37926665678911
  C   1.31561896938211      1.28548687514618      0.40026125778350
  C   0.96132610724360      2.59377526926643      0.80507414352093
  N   0.68239278453301      3.66273934858963      1.16400780087522
  H   3.32810950037054      1.74218402767513      0.71498558852338
  N   3.57497252517343     -2.22267367031974     -0.84033111640779
  H   3.22139342999859     -3.09122685733042     -1.19470417744422
  H   4.49345703718495     -1.92625981035879     -1.12114067019831
  H   1.35874177126914     -2.81619689950437      0.29336037237632
  C   -0.84076753971121     -1.56588191251245      0.88867100025880
  C   -2.14953977450795     -1.28429859498767      0.68744814829269
  H   -2.85969610759205     -1.85435901916341      1.27209358466767
  H   -0.61853196942933     -2.31466986362353      1.63944959704947
  H   -2.47704382210376      1.10175642410036     -1.76110130977185
