25
Coordinates from ORCA-job ./opt_b97-3c_parallel
  N   4.70367771224813      1.02762766038256     -0.53371412465411
  C   3.55173269017154      0.94600794620196     -0.38615303843847
  C   2.16441812133762      0.78184288896641     -0.19382633227796
  C   1.37699169257740      1.92236006981149     -0.19336193356145
  C   0.02217537796635      2.09731106682278     -0.00644314475944
  C   -1.03287682635241      1.18036361145913      0.07837858815819
  C   -2.30143129501658      1.75163807937825      0.38105631069107
  C   -3.59291142337758      1.28764379674458      0.30368190128357
  N   -4.11408183937227      0.15496582195170     -0.18346667370020
  C   -3.33489404105386     -0.84558094787368     -0.55308371940060
  C   -1.96154013937538     -1.05860293679417     -0.46389178981898
  C   -0.88136760375874     -0.24952421630191     -0.07109140996436
  C   0.34737095867181     -0.95095787000264      0.19661624043272
  C   0.20032002544499     -2.32200070441074      0.50264095139639
  N   0.17115472046474     -3.45471158713875      0.77250105774326
  C   1.70374839624677     -0.54226967424337      0.10181007233652
  N   2.65395405684835     -1.46988874790724      0.28556351367873
  H   3.62684704340583     -1.22717837965787      0.20796647969637
  H   2.41760850334175     -2.42991824719205      0.47123198106909
  H   -1.68337779094873     -2.06027629622043     -0.76302992079892
  H   -3.88224958990137     -1.68662043896600     -0.97074851978337
  H   -4.34639815651977      1.98791488078654      0.65307193869588
  H   -2.23567819962069      2.77127942198168      0.74217126142145
  H   -0.28568777815788      3.13369632557966      0.02781376449324
  H   1.93104743823134      2.84125583224072     -0.33978124023836
