28
Coordinates from ORCA-job ./opt_b97-3c_parallel
  N   -4.46498137943223     -1.54663252089596      1.14543334883196
  C   -3.48655993094254     -1.02993089227945      0.78129739449842
  C   -2.32387985380500     -0.38444938238499      0.30227365425124
  C   -2.53314483191946      0.83132422295042     -0.50374407655375
  N   -3.84098747627191      1.08928361442039     -0.81667955603075
  H   -4.02298245263748      1.77339729397407     -1.52851308899499
  H   -4.51311822297676      0.34404437610002     -0.75833480461112
  C   -1.55193362640469      1.69040152921386     -0.89473550543563
  C   -0.18997999328242      1.70418052833151     -0.47068261857446
  C   0.58806475301588      0.70306120794986      0.00067819146816
  C   1.90350400950034      1.06426469284098      0.58648806534286
  N   3.05696797093797      0.51715646437501      0.37187549929315
  C   3.26464405431951     -0.61640639500413     -0.35458322930717
  N   4.51167069733466     -0.65148527721174     -0.92109335056113
  H   4.86473616055444     -1.54120751098972     -1.22616043909374
  H   5.19045630836332     -0.03742974493893     -0.50506193031844
  C   2.42152521594212     -1.70581705556341     -0.44952387329987
  C   1.07802656959511     -1.74958801477653     -0.05657154484513
  C   0.19187688302345     -0.70828791312604      0.13127392137943
  C   -1.14124972195282     -1.05557365603639      0.47854700870241
  H   -1.25319238672458     -2.04067498700965      0.91935840909100
  H   0.65937100500202     -2.74516551942612      0.04132967031256
  H   2.85218984113536     -2.62951560414045     -0.81703982769696
  N   1.88641230327144      2.13686113085920      1.41868409262142
  H   1.01033728679732      2.43855182929716      1.80169942049103
  H   2.72332235681808      2.33396580185427      1.94078193980384
  H   0.28222308360316      2.67879030305657     -0.54074657222955
  H   -1.86939224476499      2.54892227246074     -1.47576883373551
