27
Coordinates from ORCA-job ./opt_b97-3c_parallel
  N   -4.34904881296363     -0.06706959229777      0.84957326589657
  C   -3.28494550177626     -0.47702284837337      0.63087811265772
  C   -1.99866315801070     -1.03189359048487      0.39221886835396
  C   -1.85082730415222     -2.38721151218514      0.70382685350092
  C   -0.81310777464501     -3.23991324299616      0.39881595635056
  C   0.35631885073000     -2.91152156500365     -0.27314384120306
  C   0.88492201133105     -1.65856424308613     -0.54091609168733
  C   2.06440537708354     -1.63578434014356     -1.32787291176416
  N   2.99137883922554     -1.63639181541862     -2.02845968138361
  C   0.38795537538857     -0.37814368606200     -0.08857312716101
  C   -1.04410256670579     -0.11349562400960     -0.12625131898505
  N   -1.52685701494306      1.00994992129809     -0.63021066521926
  C   -0.94648516324916      2.19395515728969     -0.73829700615543
  N   0.02703068712460      2.73869095382906      0.01526943873252
  C   0.98533436946889      2.01795122519062      0.55288597598502
  C   1.28532432013995      0.60708283090927      0.31130303316252
  C   2.59877891113993      0.22222818010614      0.65435288509335
  N   3.67484027606421     -0.00507000043162      1.03411010256203
  N   1.82928607247509      2.68315191524427      1.35469507194647
  H   2.66231573034682      2.25533012885884      1.71889016335957
  H   1.71891294236248      3.67855041339951      1.43044786297807
  N   -1.48550455356554      3.02294800585671     -1.64889099857086
  H   -1.19593987562773      3.98329500747835     -1.65922702014768
  H   -2.35272932674546      2.76562236065675     -2.08377816925595
  H   0.96275301327088     -3.74114714731917     -0.61324035078220
  H   -0.95773661822395     -4.28473845329121      0.63565459785952
  H   -2.71474429164281     -2.83653423641421      1.17581349287628
