23
Coordinates from ORCA-job ./opt_b97-3c_parallel
  N   -0.94156050304611     -3.50771902779853     -1.11207064017602
  C   -0.37620537985905     -2.55585405153812     -0.75889839721605
  C   0.33992331349279     -1.40062956226076     -0.36692025767113
  C   1.72000719817363     -1.47434950693907     -0.33384461369107
  C   2.67411899805658     -0.53551818317713      0.04345417446328
  C   2.49558571000823      0.82745259053542      0.23251259169151
  C   1.28432979313008      1.54059948019779     -0.00156977625851
  C   0.00763448592830      1.07768834200889     -0.12592735021630
  C   -1.01313283100500      1.92803633676610     -0.70025039092319
  C   -2.35090831986086      1.93338697601749     -0.46179804960157
  N   -3.06963651505932      1.28084654694820      0.49300438620043
  C   -2.58352991169680      0.23209586751307      1.09233740699684
  N   -1.55667164859873     -0.56112889792103      0.74808766164080
  C   -0.44645759194691     -0.29284610543088      0.13368492449762
  H   -3.14961612818483     -0.13808717303456      1.94183009944152
  H   -2.94142700578645      2.63316918914464     -1.04400014156791
  H   -0.65547706332492      2.63224086384631     -1.44268551113158
  H   1.40641906463416      2.60889119959039     -0.14536810543813
  N   3.58797157808343      1.59715266728360      0.51593828484414
  H   3.44565913386066      2.51810948702064      0.88866654563604
  H   4.43303368068641      1.14353168008229      0.81250987110063
  H   3.68734353870521     -0.90733850243408      0.13564203048245
  H   2.11997590280992     -2.44817516692095     -0.58815028230369
