26
Coordinates from ORCA-job ./opt_b97-3c_parallel
  N   3.30686680679183      3.28448704209730     -0.03036819336383
  C   2.55528236966653      2.39418238738909     -0.02172234483600
  C   1.70603851774514      1.26802408790803     -0.01108470973737
  C   0.33082520587655      1.52603971727808     -0.01326853602774
  C   -0.81358057260586      0.74135604699477     -0.00564479472218
  C   -1.99209820943267      1.51178719213713     -0.01270717783067
  N   -3.28298325227528      1.24496465219161     -0.00983206824542
  C   -3.80411515939441      0.00085802894825      0.00215724735745
  N   -3.28357582925472     -1.24350454161103      0.01397831408247
  C   -1.99281678228701     -1.51093341700811      0.01619530727116
  C   -0.81393206098829     -0.74105722859713      0.00847256532950
  C   0.33009494942320     -1.52628797440722      0.01547694442243
  C   1.70543422728640     -1.26891575588349      0.01250723300740
  C   2.55414115683695     -2.39548189109112      0.02265506082969
  N   3.30530741713267     -3.28614558987418      0.03069898933398
  C   2.36068798143303     -0.00060713346714      0.00050307541165
  N   3.69312835413301     -0.00092418209112      0.00009548252297
  H   4.20898595064015      0.86405423018406     -0.00810368965697
  H   4.20859111606718     -0.86614113107628      0.00792381598583
  H   0.12452807058051     -2.58923965842966      0.02558839555496
  H   -1.81100065280584     -2.58253849884325      0.02642372747936
  N   -5.13971227813596      0.00117433268793      0.00238965105771
  H   -5.63197326532304      0.87645035914744     -0.00585051868569
  H   -5.63237025855061     -0.87387626983875      0.01089506533091
  H   -1.80978211490871      2.58330873957879     -0.02297008349830
  H   0.12575124604952      2.58908843237654     -0.02323922697289
