21
Coordinates from ORCA-job ./opt_b97-3c_parallel
  N   -3.22689275261684     -1.31747694311014      0.60802226499071
  C   -2.26924908796008     -0.53037505372225      0.08369058984629
  N   -2.73101183877871      0.64799761221320     -0.37994755013738
  C   -1.89783293799168      1.66879515288296     -0.52432086572325
  C   -0.54490250136222      1.81817262215332     -0.26744875153061
  C   0.43962195357532      0.85607670702533      0.02717402127569
  C   1.71172941039354      1.31691330359573      0.41390785318364
  C   2.94913393326040      0.69557411662491      0.48704526484552
  N   3.37388139256531     -0.50702611672319      0.11852994334047
  C   2.53264898769905     -1.43222888595626     -0.35231097045603
  C   1.15931176782749     -1.49413767588346     -0.43759821165360
  C   0.14240982232708     -0.56278142656546     -0.10148149536925
  N   -1.06177452980865     -1.09572211811145      0.04996685022573
  H   0.75981711451464     -2.44645808394989     -0.76360111791369
  H   3.04141763324636     -2.33288442204399     -0.68678502947654
  H   3.74445093414116      1.32943563850472      0.87237483921248
  H   1.73850575897914      2.36787321741062      0.67960887652511
  H   -0.18155452894341      2.83410645846176     -0.35868609175316
  H   -2.39643379466027      2.57521389203405     -0.85936064349153
  H   -4.17718942492133     -0.99707270341944      0.59488874235548
  H   -3.01015917718658     -2.26417260182117      0.85742205810364
