26
Coordinates from ORCA-job ./opt_b97-3c_parallel
  N   -0.16083220144717     -3.60969423493256      0.88847429294887
  C   0.14285450584644     -2.50788201060777      0.66720735602550
  C   0.63014762383823     -1.20548555885603      0.42785370713002
  C   -0.34976579940045     -0.22260606823301      0.13967415067877
  N   -1.52106251960018     -0.64967498883586     -0.28415672140423
  C   -2.67446549917488      0.02488762269039     -0.38545734518790
  N   -3.14994604793495      1.03601786219242      0.34715084598603
  C   -2.31112810162687      1.76882055112229      1.07801601052501
  N   -1.01584949927677      1.93704042849666      1.02623119453517
  C   -0.09436568864587      1.21653046481357      0.33976514437749
  C   1.04116112394786      1.86077956718373     -0.07588732419155
  C   2.29632229109642      1.31939012787175     -0.43068969851485
  C   2.73915021323771      0.02299986692388     -0.21103735029152
  C   2.03997906215843     -1.08059704361983      0.28798717630522
  N   2.78763688850311     -2.17513394456978      0.60752220810470
  H   3.73367989083740     -2.22253666645046      0.27759763592269
  H   2.32604888758064     -3.05986526733289      0.73717556187379
  H   3.78945239545554     -0.15362986025500     -0.41448090843849
  N   3.19048262542578      2.20489472464831     -0.98034485114537
  H   2.98637525948433      3.18435488120502     -0.89636311603714
  H   4.16887004087622      1.98259106820473     -0.93066406586803
  H   0.98683836396180      2.94134721560967     -0.00833845959948
  H   -2.80593229461875      2.39770340885141      1.81389538064454
  N   -3.52607495121427     -0.47504011801292     -1.31035797163273
  H   -4.47694980953906     -0.15449063530603     -1.27721094327936
  H   -3.34213745446837     -1.39509471719737     -1.66716788206547
