25
Coordinates from ORCA-job ./opt_b97-3c_parallel
  N   -4.68075825018546     -0.42038521258382     -0.48979271557269
  C   -3.54112258825011     -0.29427667805514     -0.29076704287954
  C   -2.16813803300095     -0.04780027863537     -0.07254325104117
  C   -1.38501684029347     -1.13758759806162      0.36731487711821
  C   -0.02609997028987     -1.27927424089378      0.44013017841083
  C   0.49935176274284     -2.50307576961105      0.91846586783655
  N   0.92644326594636     -3.49831525946692      1.33881762353198
  C   0.94867563328053     -0.32297554692108     -0.08207423935604
  N   1.95817561000787     -0.80590573776064     -0.72278760238033
  C   3.13330255272098     -0.26393853137022     -1.08575363703251
  C   3.78724965834379      0.75621797235167     -0.46045446747911
  C   3.20406877180661      1.61391353501633      0.50040445387048
  C   1.88284474638958      1.78175926473690      0.77760470481416
  C   0.74518657911445      1.10078040807539      0.20778357595125
  C   -0.43869197334665      1.76884572932626      0.08250256123481
  C   -1.74364045321019      1.28707667353857     -0.21933394279082
  N   -2.65376435359586      2.22464813473665     -0.55989161100304
  H   -3.60879425302834      1.97639094893731     -0.75219900570929
  H   -2.37347771541548      3.17074455521400     -0.73260999011985
  H   -0.38544143258859      2.83992206548987      0.24426937586773
  H   1.63097353993624      2.53061254114882      1.51948829140480
  H   3.88361264611132      2.27008442790948      1.03144334564280
  H   4.82728031075826      0.91570156556350     -0.71298575617135
  H   3.63369646177850     -0.80084974793789     -1.88346281242160
  H   -1.95548231203245     -2.01544941034787      0.64107031867303
