22
Coordinates from ORCA-job ./opt_b97-3c_parallel
  N   -2.45192199648746     -2.79872487031131     -0.72315228357245
  C   -2.02963408104138     -1.74822183835804     -0.46587146602320
  C   -1.55828707469291     -0.43919290560038     -0.18814500181512
  C   -2.34544831164364      0.63687671676455     -0.68827414728735
  C   -2.29972362902276      1.95447064084205     -0.34450852968882
  C   -1.47840030966261      2.47753726776387      0.69243213576203
  N   -0.35218978861542      2.02687055446906      1.13315327471384
  C   0.32884921877523      0.96286720823881      0.59666795527522
  C   1.63469827362920      1.10791683515960      0.23732980611348
  C   2.50909175574568      0.05398630549725     -0.19118798629445
  N   2.48127963429100     -1.22109139547564      0.16335443425931
  C   1.50213364860377     -1.73352784374617      0.92009282687319
  N   0.24222584840240     -1.42144980844185      1.01517954359359
  C   -0.33894151531909     -0.33089793583792      0.47565983031787
  H   1.79627468151308     -2.61183490941691      1.48699018456272
  N   3.57123362357028      0.41960851170045     -0.93968886741024
  H   3.61938351434975      1.32250364718383     -1.37188277184063
  H   4.20418364793250     -0.29885146196851     -1.24356976302366
  H   2.03394100371852      2.11477314547233      0.25935307601812
  H   -1.85633433051819      3.35499521386090      1.21359045182801
  H   -3.06142608785099      2.60953827241420     -0.74539841626218
  H   -3.13690714517668      0.33869204439006     -1.36413092739895
