27
Coordinates from ORCA-job ./opt_b97-3c_parallel
  N   4.94181077736115      0.22495055709720      1.30250446088253
  C   3.85705737298576      0.39970961301410      0.92130966072795
  C   2.54265331125928      0.55881727192999      0.42541166019867
  C   1.96468200524984      1.80882806338437      0.56239047384559
  C   0.75066861583238      2.29225514312070      0.09772386330058
  C   -0.34205574349251      1.58663319235932     -0.37129859470473
  N   -1.31303108115882      2.27640731422221     -1.00429553252498
  C   -2.59711162737059      2.07498505685097     -0.99064290499164
  N   -3.35969641948649      1.33313899552269     -0.18686723480885
  C   -2.91440337899715      0.24675136680329      0.42057131343516
  N   -3.77374993338716     -0.32472856372531      1.27829526349699
  H   -3.59478437453974     -1.22309098571962      1.69137550720422
  H   -4.70028038071426      0.05990498958798      1.33125995107054
  C   -1.64873219838168     -0.43793247111135      0.19251925645029
  C   -1.61734323405811     -1.78089581519587      0.62787801742127
  N   -1.67026194637904     -2.85346767316802      1.07506876202556
  C   -0.45828385771186      0.13692663166585     -0.25183664807430
  C   0.63753391624153     -0.70752577360198     -0.64076590929321
  C   0.31545441685693     -1.88177754274780     -1.35210389806202
  N   0.13821114491999     -2.84278335441625     -1.98423740269553
  C   1.99914761342648     -0.55495913016419     -0.30593885195157
  N   2.85509732361048     -1.53197688705659     -0.64823559739968
  H   3.81954085649067     -1.49049978899014     -0.36928315163832
  H   2.52416138585140     -2.38226734405222     -1.07107456245277
  H   -3.15793954307134      2.67691888190001     -1.69970645487940
  H   0.62009164225688      3.36655111845059      0.10456881157993
  H   2.59819431530475      2.54462497554034      1.04103867543756
