28
Coordinates from ORCA-job ./opt_b97-3c_parallel
  N   -5.71892231275219     -0.21827440723305     -0.84163203357275
  C   -4.56889107163220     -0.19973225051343     -0.66196247342729
  C   -3.18860809290128     -0.11261696250000     -0.39889378587592
  C   -2.35425139882022     -1.16417381008873     -0.73134757231506
  C   -1.00179170135756     -1.34841056655996     -0.47885527838444
  C   -0.01687182086634     -0.45071968514674     -0.06034953442493
  C   -0.31520249146611      0.97743152613529     -0.00195167526928
  N   -1.48887610904483      1.43936877807035      0.43321687593165
  C   -2.71966003159920      1.00107614512286      0.38904495053858
  N   -3.62163377203961      1.67612379390271      1.12612308041828
  H   -4.59462943871238      1.42957767982642      1.11847151019684
  H   -3.33433850685313      2.51895397563674      1.58853610914132
  C   0.60880348152854      1.96156315081317     -0.37119982952970
  C   1.96772715914479      1.87649420615778     -0.57240169315891
  C   2.86919206721451      0.84862562245734     -0.32080961943354
  C   4.23670368508478      1.12967453667181     -0.53178443677893
  N   5.37589243211294      1.31313770026490     -0.68301895942697
  C   2.55877570131635     -0.44013615140445      0.21449916270949
  C   1.25581669331204     -0.99207286903629      0.31377491818115
  C   1.23125096532903     -2.33586119972324      0.74683137630531
  N   1.28198434870093     -3.43695120805754      1.12200384446517
  N   3.59831133989943     -1.20015842545097      0.60394120383659
  H   4.54157914116992     -0.87756201251170      0.47613675024279
  H   3.46299045894146     -2.14939855222312      0.90572997742955
  H   2.42938647156527      2.79052289402571     -0.92393408732762
  H   0.17165896263741      2.94442640089573     -0.48405835893560
  H   -0.64645618153199     -2.34515025185054     -0.70028601883253
  H   -2.84323930628130     -2.00139751488088     -1.21278999700455
