20
Coordinates from ORCA-job ./opt_b97-3c_parallel
  N   4.81860927113799     -0.29932552957401     -0.40831964055263
  C   3.68033103658671     -0.14668875515539     -0.23245710300999
  C   2.28259553381003     -0.02549945854289     -0.06777045935510
  C   1.60338368964831      1.04035406786092     -0.62742468725129
  N   0.35676913963834      1.44054401532623     -0.38177207572807
  C   -0.67820252431489      0.77485355226768      0.07224216694398
  C   -1.83652488579923      1.48717080551374      0.48626533028589
  C   -3.13595957311894      1.08855072954234      0.34754368758271
  N   -3.68661594787435      0.00111974777879     -0.24182057341232
  C   -3.01038858487506     -1.07059255837427     -0.58581419607131
  C   -1.68391092012719     -1.46093267278270     -0.32836782611939
  C   -0.66520638072806     -0.68526907618580      0.17135457982976
  N   0.37569969897654     -1.25460336752384      0.83677630621735
  C   1.63325498562588     -0.98163742616013      0.77621991181988
  H   2.27000465325853     -1.54875271907194      1.44891479199338
  H   -1.46949906962898     -2.51751996359086     -0.44102667739882
  H   -3.61866409820652     -1.83670163889409     -1.06049062572329
  H   -3.88275339049290      1.79986651433825      0.68404981498144
  H   -1.65742676397222      2.49610536154721      0.83601684102578
  H   2.15161379195587      1.69836981908142     -1.29326550155812
