28
Coordinates from ORCA-job ./opt_b97-3c_parallel
  N   -4.77761184966410     -2.16162054718182      0.33287991064955
  C   -3.70327153595138     -1.71573569371094      0.29981500961595
  C   -2.42766867500577     -1.11528977809036      0.23323499627977
  C   -2.37592550383722      0.23488526525152     -0.21787618538915
  C   -1.22055570813643      1.06462289234791     -0.18939736939840
  C   -1.48593350378933      2.39622411006965     -0.58466909846604
  N   -1.78898400844202      3.46260951708468     -0.94015340881528
  C   0.13179055172300      0.82470529861873      0.21962762463179
  C   0.84951642856636      1.95596472942976      0.62973354283951
  C   2.20832643744929      2.16837375245501      0.80865435126991
  N   3.27260239032035      1.48109437450561      0.45456425882343
  C   3.21770498469404      0.25837754383384     -0.08909482161340
  N   4.38839779666640     -0.12722451335739     -0.62431386553342
  H   5.17249935949075      0.48806718540958     -0.50137299976381
  H   4.53583485589269     -1.04761214498482     -0.99892161445549
  C   2.13348788080976     -0.67648685162627     -0.08626932126887
  C   2.51626054916954     -1.98363558098880     -0.45770461789441
  N   2.91193519528498     -3.02649010004392     -0.79270934297902
  C   0.74992416566612     -0.49080577972537      0.21171069903024
  C   0.02089064993040     -1.65799195834816      0.48893026866708
  C   -1.33086146873256     -1.90478734488081      0.55219470293522
  H   -1.58524286648993     -2.91235394521529      0.85543130322644
  H   0.62693944943584     -2.52793314728580      0.69756644544293
  H   2.45483294504282      3.11864869476662      1.27425525251676
  H   0.24906838950483      2.82135212266811      0.87313406675374
  N   -3.52704535018341      0.77102822212753     -0.65715136945935
  H   -4.37695376098194      0.23438647075773     -0.64133474830421
  H   -3.58443705602444      1.73787223181739     -0.92650159394497
