21
Coordinates from ORCA-job ./opt_b97-3c_parallel
  N   -0.79622467390052     -3.41897294144441      0.92928095150377
  C   -0.96003890494217     -2.31035786118903      0.62436424137072
  C   -1.20706085034782     -0.96325319100474      0.26175367675523
  C   -0.08724027324327     -0.20752461631228     -0.15844042095781
  N   1.05044795240062     -0.83405348247482     -0.41038575093630
  C   2.27692779746746     -0.37759717296990     -0.23730089879575
  N   2.72674340584209      0.61151527298543      0.59131731219727
  C   2.00026772490013      1.67821441368363      0.80933600095445
  C   0.74519909458133      2.06532046852886      0.30550935996638
  C   -0.21961475482016      1.24874639022638     -0.24456585815151
  N   -1.28501860346550      1.78544267503845     -0.87901963624072
  C   -2.52677923037424      1.43224072574891     -0.79353822851728
  N   -3.13927768486721      0.58031096221102      0.05559428430302
  C   -2.51467828665865     -0.47823224833079      0.51254480254212
  H   -3.12510246456329     -1.12583672006125      1.13529470753901
  H   -3.20252321748149      1.94158362157837     -1.47469881182184
  H   0.48750508750899      3.11303060349621      0.39363468273729
  H   2.49249821446585      2.41657229830746      1.43742300544451
  N   3.25571632711922     -1.03541965217371     -0.87701886691814
  H   4.20772594601175     -0.83335336777205     -0.63275654514021
  H   3.03758018926787     -1.88795450657096     -1.36019633253427
