25
Coordinates from ORCA-job ./opt_b97-3c_parallel
  N   -4.00324176699652     -0.68111364698772     -1.74841266670092
  C   -3.12117571178346     -0.20896164912319     -1.15597322833775
  C   -2.02163433133725      0.30704223157411     -0.42517635553806
  C   -2.15375314094571      1.54989650600386      0.11491453031947
  C   -1.20686434335502      2.31448688413674      0.85706362355299
  C   0.13937613704621      2.17989309224857      0.83055786454182
  C   0.88221574672842      1.15873330305105      0.13579260210337
  C   2.11849714363533      1.45313580025005     -0.36727497820943
  N   2.90337305973416      0.67567325463644     -1.15957303519873
  C   2.95631511424139     -0.61639844161254     -1.06725210354591
  N   2.49078008571694     -1.43516771076269     -0.08209386462815
  C   1.38701459648906     -1.18812737782689      0.54913638040928
  N   1.13069824881633     -1.81068326691859      1.72046529012225
  H   0.17600686607062     -1.90363628652994      2.02042198068183
  H   1.78230387319622     -2.51472657854764      2.02406445903144
  C   0.35753867243080     -0.20623527078734      0.08876549849462
  C   -0.89948545481818     -0.61614678497176     -0.19324528322187
  N   -1.23830436705106     -1.96960437515751     -0.15335492995130
  H   -0.51396541972460     -2.59103209518501     -0.47696510022448
  H   -2.12072127454712     -2.19565299745467     -0.58463981167985
  H   3.57579356576936     -1.12256869733893     -1.80109080896257
  H   2.49127028257829      2.46357738881054     -0.22547649078491
  H   0.72160478535811      2.94811331680559      1.33016948404734
  H   -1.61154012774971      3.17079982145826      1.38133732045135
  H   -3.10835297510328      2.03490431473136     -0.05035250977238
