23
Coordinates from ORCA-job ./opt_b97-3c_parallel
  N   3.65581573609912      1.98917781827484     -1.06069534915860
  C   2.78236392403098      1.32920305857274     -0.66408983112571
  C   1.76833187145639      0.47439193559895     -0.18590075647419
  C   2.10833431397105     -0.85496814437988     -0.00053401629668
  C   1.22169431886279     -1.87263228801831      0.52650488876141
  C   -0.12190529532506     -1.89864894823890      0.55562002581513
  C   -1.05497739679826     -0.88067301218646      0.12363141181546
  C   -2.27266397053267     -1.27615705611867     -0.35736401804742
  N   -3.21613108802718     -0.51380193525001     -0.98166535235136
  C   -3.41390198079943      0.73284554034107     -0.71280640233303
  N   -2.98978636576557      1.42894121013687      0.39422916813229
  C   -1.81880833340955      1.30674017117150      0.88226927885813
  C   -0.70125366542023      0.52595244859713      0.29865672360858
  C   0.51720469114336      1.08579027451969      0.19163540027712
  H   0.58352158680920      2.14755308467080      0.40302147429254
  H   -1.63234074923869      1.79684421935295      1.83766064714318
  H   -4.12428984157098      1.27003707685919     -1.33190086558392
  H   -2.47781272924018     -2.34140907328790     -0.39045502623530
  H   -0.56918766109050     -2.81963246338773      0.91582385995636
  H   1.72815588379388     -2.76227784211060      0.88303271040370
  N   3.37893207523313     -1.28301163877002     -0.23022396154135
  H   4.02571004186990     -0.67007114841034     -0.69801258185642
  H   3.54817219065221     -2.26545491933923     -0.34228436136015
