25
Coordinates from ORCA-job ./opt_b97-3c_parallel
  N   -0.44699884528391     -3.56718308668936      1.53397739120900
  C   -0.70380848023695     -2.50528744780351      1.13741234532031
  C   -1.04016816581677     -1.21255338846998      0.67314406890929
  C   -0.01930312790675     -0.47262376214059      0.01738824833496
  N   1.02538113080215     -1.09049971128607     -0.46965298658905
  C   2.24512361399162     -0.59336330328313     -0.71835881696388
  C   2.82755030810931      0.52013148566835     -0.11722290553346
  C   2.09793002056883      1.50484269848102      0.55655141559192
  N   0.79788965318126      1.78103139170462      0.42328011802391
  C   -0.16140232795216      1.00281535113312     -0.02073987058837
  N   -1.25132062848827      1.57021390605192     -0.52333756286907
  C   -2.48374324006094      1.10531142534046     -0.46563602745846
  N   -3.03937344292548      0.22435618458675      0.40637431505531
  C   -2.35523625948283     -0.77175495429952      0.91471749199319
  H   -2.93208850500403     -1.40597220694262      1.58139649950588
  N   -3.37056568785032      1.64506653609057     -1.33206796041776
  H   -3.09959048234321      2.46792145699431     -1.83835052223316
  H   -4.34529823846661      1.48778500857213     -1.15339937286175
  N   2.75256572531316      2.35427107441111      1.39332226418537
  H   3.75441722068045      2.34598668429790      1.43183250209968
  H   2.28940118454800      3.21530735963559      1.62204681891224
  H   3.90597956406475      0.61381828971521     -0.14836296738289
  N   2.96928535635842     -1.35021153396130     -1.58839857421405
  H   3.95495156113127     -1.18468664702333     -1.67771102614492
  H   2.65939616806902     -2.29791499118343     -1.71517242598355
