26
Coordinates from ORCA-job ./opt_b97-3c_parallel
  N   -2.57129543114834     -3.52300785088032      0.81534955778153
  C   -1.93304425398518     -2.59832211996415      0.51001815763544
  C   -1.21350625918132     -1.44294226236580      0.14418353974437
  C   -1.87436838800665     -0.22485547728606      0.27582017474182
  N   -3.12254630629327     -0.19370646084128      0.80244443754081
  H   -3.61973987168993     -1.05641524841575      0.94512161710318
  H   -3.67832169947248      0.63975065997907      0.73763594822912
  C   -1.36195739696864      1.05226809743852     -0.19634627744188
  C   -2.32394957870555      2.02890182665437     -0.52467801861780
  N   -3.08443051138798      2.86849940908600     -0.79438154272408
  C   -0.03600114713434      1.45397644572438     -0.28264523671023
  N   0.27709073780739      2.70748665128360     -0.66504095432381
  H   1.23040871199552      2.93034245573109     -0.88084484893082
  H   -0.43307936663156      3.35248673638056     -0.97010577355806
  C   1.09421620081263      0.59504878644065      0.07925235266652
  C   2.12658630141529      1.10032434432652      0.81461098627709
  N   3.20525467787910      0.41767837145059      1.29616009941149
  C   3.72395175519735     -0.59964187928809      0.68935410292931
  N   3.53127171669687     -0.99533608460996     -0.61055556514836
  C   2.37691046752380     -1.03482465434634     -1.15362654817013
  C   1.10561516126748     -0.76399889935775     -0.44896112147095
  C   0.08422761320747     -1.63859987876693     -0.43038193690976
  H   0.26126668885336     -2.62008670177360     -0.85524904342724
  H   2.34047741005538     -1.23600212006581     -2.22408426460059
  H   4.52637714868144     -1.12208659415576      1.19909315164002
  H   2.04969350871713      2.11582532231114      1.18660195564302
