29
Coordinates from ORCA-job ./opt_b97-3c_parallel
  N   -4.74953951999499     -1.99250028595746      1.55262327167951
  C   -3.81704484203045     -1.49455907735620      1.07149254716516
  C   -2.68642723415538     -0.87175384707007      0.47930145500286
  C   -2.95773183455520      0.31700825451079     -0.28868053564754
  C   -2.06410247159037      1.23888438062650     -0.72769477798454
  C   -2.54557380684500      2.32575015648081     -1.50285565227170
  N   -2.90562170485185      3.23107676886715     -2.13473545967507
  C   -0.66538589111858      1.31061304190681     -0.33019827193753
  C   0.12726544359953      0.29307586713365      0.04054584127795
  C   1.43078764951189      0.62606397054825      0.66051330894328
  N   1.37721525561482      1.54194343041331      1.64708610948715
  H   2.19317402904908      1.77457323985815      2.18886773130183
  H   0.48522854761964      1.84537133429981      1.98942257167309
  C   2.63678275033563      0.10015208947861      0.23994808458272
  C   3.79797792817351      0.61384582179088      0.84969897857754
  N   4.74018574603650      1.06530439465088      1.36419849245342
  C   2.82074700114344     -0.94181717911566     -0.75839905046883
  N   4.03377051644557     -0.95008029546549     -1.38614927845994
  H   4.31654121605991     -1.79183899860770     -1.85533613804197
  H   4.78814763574099     -0.40746572819388     -1.00222252507369
  C   1.91210592574186     -1.94108327815012     -1.01796893375216
  C   0.62887613351764     -2.09477897280817     -0.47267818041715
  C   -0.22648820157024     -1.13888951541742      0.01293163809451
  C   -1.49095539014576     -1.54190814897723      0.54043102018737
  H   -1.52860421109130     -2.52725649691012      0.99231296102780
  H   0.22987489319844     -3.10259842242904     -0.51156565735895
  H   2.25678167510123     -2.74752406585195     -1.65438831763495
  H   -0.25355372715114      2.31224673173660     -0.30438757892819
  H   -3.99800241759210      0.47874095811159     -0.53836808109953
