24
Coordinates from ORCA-job ./opt_b97-3c_parallel
  N   4.21389288204866      1.62549942408271      0.95958015520175
  C   3.27667654261765      1.01094276706009      0.65174948308960
  C   2.12352429545576      0.28132640132605      0.26749341187073
  C   1.02299427021292      1.04549677375419     -0.24954273929817
  C   -0.26583101003818      0.66252704074121     -0.37221543419615
  C   -1.22942130612844      1.53348066794623     -1.06339051807969
  C   -2.42112820571404      1.89186997808435     -0.56362313362342
  C   -2.96844262158897      1.43469150351025      0.69377393826667
  N   -2.80297585325146      0.29146168675663      1.26662725988447
  C   -2.00173237617930     -0.70432786412756      0.76876979193276
  C   -0.83479532546845     -0.60789360236183      0.07984059972177
  C   -0.11809766225646     -1.83349079941049     -0.31150628912670
  N   -0.90529339824916     -2.85395470884316     -0.76590128202435
  H   -0.46868126682863     -3.61331437021014     -1.25947640156894
  H   -1.83255445140784     -2.62228692464855     -1.07381613001680
  C   1.22860702434644     -2.02011028080293     -0.13619039381598
  C   2.19445971364013     -1.08989130023519      0.28940823525507
  H   3.14415483652845     -1.51256728623479      0.59204133520732
  H   1.59856364999979     -3.02492426996557     -0.30999869948799
  H   -2.31478543299616     -1.69156070730056      1.08952473282818
  H   -3.66567414589651      2.10816418130894      1.18860203770960
  H   -3.01708085441432      2.61456440261849     -1.11106381220084
  H   -0.92559137466134      1.93770562450491     -2.02393023776779
  H   1.26667923792872      2.04863611094665     -0.58046461916236
