26
Coordinates from ORCA-job ./opt_b97-3c_parallel
  N   -4.08432085787443     -1.22681614702427     -0.25825439874081
  C   -3.07788091449935     -0.64656319337444     -0.21776980991046
  C   -1.87327766113309      0.10406865773404     -0.19194537785708
  C   -0.70447187103272     -0.57967919854265      0.13344992950761
  C   -0.85939128029248     -1.92462936052940      0.63877473146175
  C   -0.07008765644921     -3.01738121926151      0.49540417148616
  C   1.18504294106206     -3.12179020729994     -0.14390926452029
  C   1.98998527627600     -2.07677528786632     -0.46717260547941
  C   1.77653023100969     -0.68585645637050     -0.25655634547864
  C   2.93768235661201      0.10209730593306     -0.47572194098247
  N   3.89808615377219      0.72873027208321     -0.66931972954237
  C   0.61373485863725      0.03031786417590      0.09204568148128
  C   0.80651130400350      1.38971745317041      0.48981095245959
  C   0.04292063062224      2.50493885631830      0.25885112972238
  N   0.50895465543006      3.72104683517782      0.66631801256012
  H   1.47943350037017      3.81445341971187      0.90767672935650
  H   0.07560751625789      4.55230088422506      0.30916111060828
  C   -1.23524737917381      2.52684814138460     -0.39944980692539
  C   -2.05350554894440      1.47374584243320     -0.57503144166502
  H   -3.01599952457057      1.68489394765827     -1.02297491504836
  H   -1.60018709260107      3.49582548634489     -0.71669009014666
  H   1.77096445935396      1.58288959795877      0.94323547663629
  H   2.95904806516599     -2.31884706973485     -0.88433304134126
  H   1.56761615203038     -4.11791223083386     -0.32064112615407
  H   -0.47099613709863     -3.93686413039545      0.90622017329667
  H   -1.79200234263191     -2.08730786247788      1.16373297571011
