28
Coordinates from ORCA-job ./opt_b97-3c_parallel
  N   0.00390877342227     -3.43060392397262     -1.43253566479242
  C   -0.41203684109123     -2.43673975133440     -0.99788011058712
  C   -0.97238575026608     -1.21062366834038     -0.55658928614254
  C   -2.34409230687149     -1.03531216707846     -0.91598904237945
  C   -3.23045589811575     -0.10964147297430     -0.48297870621356
  C   -2.93446072422014      0.85907592739877      0.53578947457175
  N   -1.77197022631283      1.36079199251528      0.81784307308104
  C   -0.57958820067308      1.11456348307490      0.21125728502175
  C   0.19953566831641      2.18245879496288     -0.12410953396491
  C   1.55071656137118      2.14999840468689     -0.57794356978443
  N   2.49109853276591      1.27181597933814     -0.30500663815835
  C   2.32883955920352      0.15055464095476      0.41391165612308
  N   3.47039502423244     -0.28960893730706      0.98602934759561
  H   3.52446954431486     -1.21529414372966      1.37475255493319
  H   4.32220921756376      0.15972070402604      0.70382441006836
  C   1.16019067975214     -0.64246910675993      0.53537319315683
  C   1.31716840978832     -1.89180115935323      1.16312669848792
  N   1.52300339051113     -2.87734767209440      1.74895968599234
  C   -0.13014657569815     -0.27752709788054      0.04311421697213
  N   1.97034948958140      3.23427192594603     -1.28363729530767
  H   2.89872616929648      3.19247039911976     -1.66624205991858
  H   1.29609270946337      3.79272024758209     -1.77324346714568
  H   -0.26530604344320      3.15589901844602     -0.03365264423945
  N   -4.00081991250521      1.33200783106687      1.25402740614195
  H   -3.75935144702755      1.88596059781134      2.05898514198627
  H   -4.79087696516037      0.72365008668207      1.37535169401089
  H   -4.25654620128664     -0.18389079461510     -0.81874375381635
  H   -2.72697924401093     -1.78911268877163     -1.59181186849287
