28
Coordinates from ORCA-job ./opt_b97-3c_parallel
  N   4.47129463546764      0.70954251124127      1.54730132497769
  C   3.49621267607839      0.32848826637408      1.04194548142583
  C   2.30174244461863     -0.11231351181217      0.41750144787256
  C   2.20898526763944     -1.44196999101508      0.08223416524851
  C   1.18363967953982     -2.09107712480739     -0.63584776256581
  C   -0.10614486341301     -1.66085459717835     -0.79963531110670
  N   -0.95035652074392     -2.24699756293606     -1.69775129686784
  H   -1.93046798014864     -2.23623723450928     -1.45995722102427
  H   -0.63836412880871     -3.08518590372981     -2.15952600630406
  C   -0.67989732967045     -0.52523806420225     -0.04365982268246
  C   -1.81161660960678     -0.68451776452788      0.70327635905475
  N   -2.53152257272347      0.27341738735037      1.36855987962027
  C   -2.59388397661000      1.51615907484487      0.98496632464634
  C   -1.96389894719594      2.20279008007376     -0.08028998992503
  C   -0.78318313422100      1.85568655863389     -0.67984389696326
  N   -0.25289910278951      2.58442650540673     -1.69647495211565
  H   0.53914200834898      2.20931785534513     -2.18538218223175
  H   -0.83989524366199      3.21309889776622     -2.21672038784705
  C   0.03626715748065      0.73602342522748     -0.18051538845625
  C   1.35522619736868      0.90982274710865      0.05873620237448
  H   1.75455517659345      1.91439939578195     -0.01312268854730
  H   -2.43018592981522      3.13436480195965     -0.38236145518967
  H   -3.30561276725081      2.11345543234275      1.55266265092001
  N   -2.38482912216532     -1.95919714789612      0.84004471003196
  H   -1.71074698391921     -2.69221035341384      1.01047696340777
  H   -3.08243158855003     -1.93909523314467      1.56859292540445
  H   1.46022879295328     -3.02694735084166     -1.11125533132423
  H   3.07324530060536     -2.05099660934231      0.31749988496666
