25
Coordinates from ORCA-job ./opt_b97-3c_parallel
  N   2.48533131701068      3.23908345370482      0.97353114582489
  C   1.56754036523094      2.55767880834226      0.76608414761472
  C   0.43672154207748      1.73979537022757      0.53033688437523
  C   -0.82154426101406      2.35435804488765      0.61319995634574
  N   -2.00710309436147      1.97761000405777      0.20100738840469
  C   -2.35145975739683      0.76918108178248     -0.27505275064516
  C   -1.68050886167499     -0.47104866077284     -0.09216141751877
  C   -2.43712574551695     -1.64301758923848     -0.30101245609243
  N   -3.12531170470769     -2.55271954298761     -0.53019508173203
  C   -0.35240044427318     -0.64034027624444      0.35955480591074
  N   -0.02842422209817     -1.76880098091474      0.95547251140330
  C   1.14771246288724     -2.36636796213242      1.10250986341367
  C   2.30524207411356     -2.17747134790404      0.39029342629077
  C   2.49924902948382     -1.06356013164666     -0.45555213215483
  N   1.84253689079753      0.08806312889460     -0.37531991940697
  C   0.67875944077617      0.39672173089459      0.14542052126921
  N   3.48885853004795     -1.08588908536726     -1.37362973734285
  H   4.09257232592085     -1.88088536941074     -1.46176482295400
  H   3.77213622094413     -0.21981605849582     -1.79600139826014
  H   3.10282966537917     -2.90072710936797      0.49515393904679
  H   1.14110645639155     -3.15661833729957      1.84660601717712
  N   -3.54057156541525      0.76698159889897     -0.90505336795644
  H   -3.97662367437203     -0.09009690413569     -1.19709665507765
  H   -4.09932175564165      1.59857272578540     -0.83536932521248
  H   -0.80584764618846      3.36355348654273      1.01362524797647
