34
Coordinates from ORCA-job ./opt_b97-3c_parallel
  N   -4.85401015104429     -1.73385108081876     -0.56257774696189
  C   -3.90074534202061     -1.17273563453224     -0.19800127730725
  C   -2.70325816272801     -0.53709455514583      0.19275653433496
  C   -2.74423707184871      0.32437612140812      1.34188062680231
  C   -1.92463581965722      1.35020594781498      1.65936918772014
  C   -0.86642445087379      1.89040945047459      0.84163413059925
  N   -0.70924581308102      3.27418706860816      0.91852627099247
  H   -1.09332758301455      3.68784249867506      1.75102342575054
  H   0.21871268808999      3.61453877189386      0.72501851583565
  C   -0.13470850777709      1.12828785250870     -0.02007406478202
  C   0.78895365291397      1.71176132224778     -1.00237395332285
  N   0.28804240986569      2.69307744438592     -1.80384197446042
  H   0.78422236141882      2.97356589923123     -2.63106114459819
  H   -0.70239781749245      2.85188254638295     -1.79768665284057
  C   2.09670623455081      1.32959225884496     -1.09595362196714
  C   2.75717154853966      0.37976270105071     -0.26487400635472
  N   4.11984943909697      0.51483292367625     -0.20841761001318
  H   4.62763542843700     -0.07977332079306      0.42541263859628
  H   4.49645469602976      1.44025952210782     -0.30677912518104
  C   2.15519419756222     -0.70099155010370      0.38452642457712
  C   2.98337903649478     -1.51130703117953      1.18120505843355
  N   3.69277982890537     -2.17457691248894      1.82791168560077
  C   0.79836008417575     -1.16687602140404      0.15691620906919
  N   0.61779275019208     -2.55502337747795      0.13932953954990
  H   -0.22762372945442     -2.86451364502484      0.59411438374597
  H   1.41138219855929     -3.07766982247046      0.47418133463112
  C   -0.24709239166614     -0.33219595214624     -0.08439351972632
  C   -1.55161312796655     -0.84570519743953     -0.51658221240917
  N   -1.58225124836257     -1.61995263479454     -1.62732887201327
  H   -2.43512787142127     -2.10321342381485     -1.86292829074764
  H   -0.72737364817861     -2.08666798464660     -1.87873382397842
  H   2.72493742590258      1.83015820845462     -1.82524723960044
  H   -2.17085517361281      1.91098827230036      2.55462948140573
  H   -3.58263914694140      0.15150926901726      2.00619527122277
