29
Coordinates from ORCA-job ./opt_b97-3c_parallel
  N   -4.30163289873480     -1.42027408419306     -0.89765844274979
  C   -3.33712858511303     -0.84322497391569     -0.58428050387955
  C   -2.16046125026915     -0.18846468489131     -0.18871625624588
  C   -0.94325179509676     -0.79465331649543     -0.46025995477882
  N   -0.90379265333510     -1.93455764988598     -1.18337207235386
  H   -1.75718127698907     -2.42298706972312     -1.40035561852400
  H   -0.05766490175681     -2.47637106978855     -1.16933984653064
  C   0.34266498716353     -0.23523616717814     -0.02794009132125
  C   1.29732563378610     -1.04299519371714      0.52844628189783
  N   2.60789378000031     -0.75189981031407      0.81914389457447
  C   3.35623927855074      0.04950724363736      0.11933916793105
  N   4.68955643972013      0.02561834971330      0.41760241583052
  H   5.24969532067409      0.82860080492304      0.19453444277694
  H   4.93437405116753     -0.46459656516309      1.26136093142055
  C   2.99508122428975      0.97574465429781     -0.93595315128920
  C   1.77684952338461      1.53783308542768     -1.07703714531130
  C   0.56522909332054      1.17231194965755     -0.40328763584383
  C   -0.37106444736641      2.14631256580153     -0.21396894999723
  N   -1.52239221293764      2.09742525310022      0.49664196188986
  C   -2.29173781502868      1.05632921591149      0.57287946198224
  N   -3.37190204565731      1.13599186977798      1.40372244714898
  H   -3.62623158761648      2.06448588877191      1.69424156060694
  H   -4.12948957970967      0.48799491784376      1.27796393097600
  H   -0.13903642982734      3.13729012797803     -0.59462134935276
  H   1.71249180431983      2.38826977253172     -1.74990716762111
  H   3.81280467414258      1.36876120198094     -1.52726505932258
  N   1.00136736396307     -2.35940777696762      0.89459228053314
  H   0.08427698536648     -2.50055231217633      1.28924164530712
  H   1.72660733359014     -2.73178326794618      1.48603279034599
