25
Coordinates from ORCA-job ./opt_b97-3c_parallel
  N   -1.68083197145022     -3.64837790056391      0.52673327981525
  C   -1.51650842521063     -2.50906244587778      0.36153909937438
  C   -1.35672283008268     -1.11162146559125      0.17350673363151
  C   -0.02568732661067     -0.63650476671762     -0.06665662609677
  C   0.93785551636367     -1.60221460747871     -0.36067125689582
  C   2.32693738313863     -1.55442898385733     -0.47835884312165
  N   3.22503531680735     -0.62626861080391     -0.24647377930604
  C   2.87092727836801      0.62404786647160      0.12543634164104
  N   3.95356771799490      1.37201199011778      0.46788624473326
  H   3.88510331476778      2.36439315568882      0.59079585705432
  H   4.85375098185029      0.98246288816217      0.25308424216699
  C   1.61946707915665      1.23885448246839      0.17474819670613
  C   0.29920687548955      0.78306893013268     -0.00245566241155
  C   -0.65913584294154      1.80589552447496     -0.10441533058752
  C   -2.05197611269658      1.81117079679779     -0.13576611517533
  N   -2.94365221076945      0.81826149694709      0.07906167715920
  C   -2.58530982113506     -0.42844601417812      0.24600767978619
  H   -3.42596322560844     -1.08320006090723      0.45853445781073
  N   -2.67305972433053      2.99135845769884     -0.39301489116722
  H   -2.16717532682422      3.85636250264773     -0.41302807438673
  H   -3.66499581818179      3.02211474535724     -0.24035056979145
  H   -0.22503508517442      2.79518287602282     -0.19252080172088
  H   1.67749395470803      2.30061305257465      0.38605459780376
  H   2.76797229900063     -2.49755190316143     -0.79188575325886
  H   0.54848976027011     -2.59589408722635     -0.53179834886167
