28
Coordinates from ORCA-job ./opt_b97-3c_parallel
  N   -4.51742616417320      0.06774874048454     -0.83320920362398
  C   -3.45700255738569      0.25625551150677     -0.39105660046608
  C   -2.14612448572109      0.42191416107852      0.10945043287446
  C   -1.95654477752264      1.40318060510059      1.14709409427852
  C   -0.82869809310776      2.08727462792731      1.45136908257529
  C   0.43548234441333      1.96560140907348      0.79691452981662
  C   0.89608222405764      0.86342290413382      0.16750538040056
  C   2.16795216867931      0.88762922757373     -0.60247796626510
  N   3.19851456941448      0.14639264422246     -0.35326001245538
  C   3.18463853027908     -0.88269606008507      0.53167368393289
  C   2.16021333697918     -1.70017364255932      0.89095895192754
  C   0.79072149505902     -1.59402375568495      0.48408742591504
  N   0.04981261504026     -2.78367933552458      0.46157482288734
  H   0.50477087925226     -3.54867797368763      0.93170422708285
  H   -0.90306677486517     -2.68682215247315      0.77982088247230
  C   0.20468822586311     -0.41678986474364      0.10602331592204
  C   -1.15942723154849     -0.37567891750329     -0.44598299490040
  N   -1.39049835046926     -1.14774689192224     -1.53729211182579
  H   -0.79901487305704     -1.95194339571246     -1.66348764040329
  H   -2.33335244436010     -1.23417136058126     -1.88306821427321
  H   2.42122273354688     -2.56010218630618      1.49766111559760
  H   4.16840664144589     -1.13065214310567      0.91635072199059
  N   2.23429010798407      1.78634208484668     -1.61668085521926
  H   2.98270199602907      1.69024665803692     -2.28223594521745
  H   1.39186240784763      2.23712272195409     -1.92025220551907
  H   1.07373431711739      2.84294681112219      0.80579375466907
  H   -0.91572771262136      2.86846698284827      2.19656928513263
  H   -2.86196058557795      1.68735460457743      1.66903210839292
