28
Coordinates from ORCA-job ./opt_b97-3c_parallel
  N   -4.96028740946835     -0.40842726182416      0.00935703366720
  C   -3.79933280067909     -0.28363206586477      0.00243061623071
  C   -2.40725871804629     -0.12447374002160     -0.00388570313902
  C   -1.90289036355064      1.19232474699747      0.04647581626698
  N   -2.81917745513836      2.19626617868353      0.15379918137676
  H   -3.79297435510560      2.00189176530224     -0.00140851865970
  H   -2.52530516836812      3.14031758915013     -0.01139343276969
  C   -0.56395240207930      1.60355487132845      0.02490355387882
  C   0.67244529593625      0.96096549731508     -0.00599815942107
  C   1.78106375692577      1.84435350343066     -0.06246240508903
  C   3.14818477717605      1.66523405871917     -0.04754020632808
  N   3.93806890600643      0.60288103027972      0.02719200766414
  C   3.43623060443848     -0.63446120071123      0.10144251108832
  N   4.41350821981175     -1.58655808840111      0.23450469428286
  H   5.34432316086230     -1.26446661749978      0.03419055763035
  H   4.21098899510990     -2.54017077011846     -0.00293962481754
  C   2.11274519429994     -1.09895393492350      0.09024077687708
  C   0.85089898761066     -0.48889534037619      0.01224501564341
  C   -0.22173927018472     -1.39980735616892     -0.04474769921416
  C   -1.60631253652262     -1.29892946395749     -0.06292987166387
  N   -2.29057165010739     -2.47801404672439     -0.18464737421456
  H   -3.27605144545225     -2.49380597874974      0.01337858718228
  H   -1.80033126324951     -3.33123026694126      0.00936216419748
  H   0.10859953394475     -2.43137667377561     -0.08735266886107
  H   2.05595810523140     -2.17964162721339      0.15618201821313
  H   3.70948449850856      2.59494491772881     -0.10831914154850
  H   1.50521120242843      2.89010205337392     -0.12212744811971
  H   -0.47291609163841      2.68322314446265      0.05109077504614
