26
Coordinates from ORCA-job ./opt_b97-3c_parallel
  N   -5.06944796398116     -0.15305115920997      0.90050872558772
  C   -3.92301712485230     -0.19544048709541      0.69956506526792
  C   -2.54659063697001     -0.20033806300710      0.40540989389436
  C   -1.72812136568140     -1.12762632624505      1.03250982967360
  N   -0.48443749370267     -1.47587580290695      0.76075219588258
  C   0.42984785552182     -0.79860143420276      0.08397286260459
  N   1.45082221131900     -1.47070070267030     -0.41554287646150
  C   2.71214104003726     -1.07947745123618     -0.49126394907469
  C   3.30913446267382      0.01959951085859      0.15659694684419
  C   2.66217891869275      1.18907389919438      0.52526487291687
  N   3.40245439290725      2.17037292109780      1.13504374846483
  H   3.01951941571868      3.09803814022649      1.15806974103342
  H   4.40186898192299      2.13738858572864      1.04050991233986
  C   1.30666838903419      1.51248103334200      0.25900798034479
  C   0.29361197315191      0.66286593902346     -0.10512107081822
  N   -0.81745124135927      1.15768356271328     -0.68965710736694
  C   -2.05322318533342      0.74636972767274     -0.57089297856030
  N   -2.95582193388498      1.30058753246341     -1.41577000019011
  H   -3.93894272574591      1.16392663041537     -1.26299158794949
  H   -2.66814914746268      2.11511686374753     -1.92700457636784
  H   1.04463727500671      2.56393865235728      0.27933587788150
  H   4.38412698738298     -0.01524302670162      0.29002905549461
  N   3.51253967482743     -1.89913318387276     -1.23651492206137
  H   4.50830973743423     -1.80089395047340     -1.16611636021293
  H   3.16690159330085     -2.82942279945743     -1.39434533343087
  H   -2.18964459985198     -1.71285323457090      1.82220659525450
