30
Coordinates from ORCA-job ./opt_b97-3c_parallel
  N   -5.87017656746054     -0.34703204262258     -0.52649158731308
  C   -4.71483190818656     -0.44590015098920     -0.41775937867972
  C   -3.31971653088170     -0.50663424612822     -0.24498210107253
  C   -2.68311618334188      0.56202171135953      0.45168494954184
  N   -1.39205295566580      0.82629356201370      0.46252749756648
  C   -0.29354580225638      0.20749290597854      0.06508987378566
  C   -0.18336614023036     -1.24577766679988     -0.05280363153137
  C   0.98272944299780     -1.95647487125729      0.19012807945603
  C   2.31937898857945     -1.56630817391360      0.33506743674953
  C   2.87409855627545     -0.29112124830578      0.05956729959767
  C   4.27475759046857     -0.19601848239748      0.11400412694747
  N   5.43773941043554     -0.12770855946770      0.16017925025999
  C   2.17499180535901      0.88740550311307     -0.30904744437654
  C   0.76953045351554      1.09568559535534     -0.24828522082556
  C   0.35967661100103      2.44021317408678     -0.41483723459468
  N   0.13542441191738      3.56864053078273     -0.58957130282525
  N   2.92622839714181      1.94086042890572     -0.68725130710542
  H   3.92801240299581      1.90560365972481     -0.62033299616531
  H   2.50123024676935      2.84041493534974     -0.83270429258282
  N   3.18201861709460     -2.53977085872679      0.72271060191503
  H   4.17574101130856     -2.39717656306013      0.67973065555714
  H   2.86334599207365     -3.48722161831243      0.79342492694770
  H   0.83768885643127     -3.02923533386670      0.24542957991873
  C   -1.30850176098618     -1.99648945063135     -0.47425958006963
  C   -2.63067195968059     -1.65820427100792     -0.62902111722979
  H   -3.24960068726829     -2.42762633272766     -1.07290070886526
  H   -1.07117132392207     -3.01079742932588     -0.76879465845533
  N   -3.44176658266709      1.42785607853794      1.15688843369360
  H   -3.01610137456948      2.29165140240302      1.44182262222369
  H   -4.44430380028771      1.37891049142031      1.11642260401848
