22
Coordinates from ORCA-job ./opt_b97-3c_parallel
  N   5.10780354691241      0.34765536850627      0.40134705113616
  C   3.96224104589220      0.20898332026523      0.27503325861541
  C   2.56559382887134      0.06068542299616      0.11504350349061
  C   1.91762616363602      0.77850015026664     -0.93628977601823
  N   0.65609178693809      1.04097400851448     -1.01593104279132
  C   -0.37144714414428      0.64653942406017     -0.25100820622212
  C   -0.37673717617876     -0.78435180226942      0.10258888592486
  N   0.64963383908117     -1.30531048252022      0.69403827337702
  C   1.87544718795409     -0.83438999810958      0.91384259107216
  H   2.39272941335204     -1.29706496235767      1.74553170567943
  C   -1.50641529389188     -1.58562432519052     -0.30219115880631
  C   -1.26055294985280     -2.90848209234901     -0.73606225791107
  N   -1.05322627402359     -3.98631596253507     -1.11420366373731
  C   -2.80333902064748     -1.12788170296325     -0.20165500318860
  N   -3.26618216755210     -0.02788862198753      0.40983119472682
  C   -2.63952883021560      1.09110139164771      0.64140132278677
  C   -1.36810387679320      1.51985061895157      0.16448213587893
  C   -1.11249746989999      2.91176465107787      0.11446290002004
  N   -0.91747378258997      4.05561771963379      0.09242989482517
  H   -3.20820117702261      1.82604730952676      1.20213204104044
  H   -3.58305504129108     -1.78940187533674     -0.56173077502214
  H   2.53098442086845      1.15884922167168     -1.74615800717386
