25
Coordinates from ORCA-job ./opt_b97-3c_parallel
  N   -1.72582348084978     -1.94897895499423      1.39858064449069
  C   -1.60774887105829     -0.89402482293019      0.52033762915656
  C   -2.69724609779755     -0.15444628535904      0.15508676550728
  C   -2.74714474917023      0.94123921404177     -0.74705609064501
  C   -1.74102867642542      1.77238673986479     -1.13231605534582
  C   -0.40393712232967      1.72581272610715     -0.64335735724079
  C   0.22554566128347      0.65530843852884     -0.10938404691465
  C   1.56084691123110      0.80063455025328      0.54135125333571
  N   2.65769853513994      0.25851418441219      0.13022638343851
  C   2.70813477562178     -0.74038625846985     -0.79600543623171
  C   1.77737313302511     -1.69867831031499     -1.05519514636020
  C   0.45719509848507     -1.76494984447187     -0.52592128716954
  C   -0.27762263982995     -0.71234431925603     -0.07873687869469
  H   -0.02374473913379     -2.73691315714439     -0.53643513378496
  H   2.09417178560935     -2.52408754234356     -1.68114921705645
  H   3.67805485113746     -0.83554361236167     -1.27169747671986
  N   1.57293479913164      1.53119128698600      1.69198675550362
  H   2.47610954476322      1.73110332518482      2.08836162428631
  H   0.85367813015577      2.21730496724897      1.82786516922369
  H   0.15558006347746      2.65644131498146     -0.68325566874298
  H   -2.00050993311594      2.61268499756206     -1.76412661063153
  H   -3.73996071142116      1.18849569433898     -1.10743010521554
  H   -3.65281641621007     -0.47013961998639      0.56225839647561
  H   -0.86674823448398     -2.27227026839241      1.80842542681383
  H   -2.50104937403451     -1.92907909208669      2.04002186042112
