27
Coordinates from ORCA-job ./opt_b97-3c_parallel
  N   -4.66585999540730     -1.56107994160417     -1.63226027408971
  C   -3.81467236630274     -0.96012816693279     -1.11780223905211
  C   -2.76573235471642     -0.24975058002601     -0.48198445482419
  C   -1.78231156901945     -1.02923615066733      0.21409975346012
  C   -0.51529544016806     -0.65577654694283      0.52858374594488
  C   0.34145554631437     -1.59600419871969      1.23220330318112
  C   1.65723113302281     -1.80406722891994      1.06013141021565
  C   2.55325551245640     -1.19201826731728      0.10089451157285
  N   3.70149329235121     -1.88585804444394     -0.12208600936423
  H   3.72195987781739     -2.86722262702598      0.08594441292333
  H   4.32253796254875     -1.58148402646243     -0.85334373833973
  C   2.34933298260812      0.04469888110053     -0.48865518549892
  C   3.36095593096716      0.51392067195533     -1.35206933830098
  N   4.22701005181033      0.85446204203494     -2.05152038685691
  C   1.27136366601128      0.95375348411414     -0.18865515681011
  C   0.03061383873857      0.67289728102787      0.25409577922055
  C   -0.87628438262018      1.79104699260056      0.63544375829337
  N   -2.06871332454954      2.00079679539392      0.17178662047668
  C   -2.80560901597825      1.12439427115260     -0.53215171122839
  H   -3.60246970880814      1.57861602312849     -1.10890288886484
  N   -0.37373433864157      2.67739485464985      1.52020255735956
  H   -0.98053700892572      3.38646465688514      1.89436296928623
  H   0.50715601279475      2.50668624940460      1.96544950030590
  H   1.50109324280402      1.99633432733559     -0.37497114989737
  H   2.10919386765181     -2.58303205692571      1.66326042045365
  H   -0.15168093475297     -2.23551970712723      1.95680949589475
  H   -2.06852049710470     -2.04748401556614      0.44854680564201
