24
Coordinates from ORCA-job ./opt_b97-3c_parallel
  N   3.26961678665782      2.46641680168579     -1.08640669523647
  C   2.23615179074639      2.04220220839456     -0.76490509886291
  C   0.98039420630960      1.52221820775900     -0.36903783573905
  C   -0.06604454954965      2.41972378137656     -0.36413262200222
  N   -1.31826683972057      2.31357750335588      0.07492999287603
  C   -1.96010020568392      1.18234702411121      0.26562090724186
  N   -3.17352694902670      1.30001927679051      0.82656680162261
  H   -3.52409986706477      2.22728476964907      0.99080317513809
  H   -3.78850710718078      0.51509809376120      0.94675069633104
  C   -1.54538787448357     -0.16411070117966     -0.11785071744001
  C   -2.60657152128529     -1.08232497197959     -0.28084815454068
  N   -3.52540101869532     -1.78963262601734     -0.37792752577831
  C   -0.24876064522419     -0.65889539949118     -0.19818191753305
  C   -0.08268072198696     -2.01309518773485     -0.65174270160123
  C   0.88124601693618     -2.92881757729753     -0.35765263385984
  N   1.92750089761272     -2.88245492427145      0.49859373192545
  C   2.43346159481361     -1.74794840349311      0.90091909390642
  C   2.10948871415723     -0.42027961368041      0.55113391423126
  C   0.95441582549844      0.12189917256564      0.02885961856831
  H   2.88603169253956      0.29597801029791      0.79011930511703
  H   3.28852741260492     -1.84808752720400      1.56484505440378
  H   0.75961420240444     -3.89978363406574     -0.82693587419061
  H   -0.87764381740107     -2.37943847572063     -1.28973901493570
  H   0.18315724420300      3.41995607079040     -0.70278408261639
