23
Coordinates from ORCA-job ./opt_b97-3c_parallel
  N   -1.60136567139944     -3.52084741015985     -0.92980952881268
  C   -1.46718047563902     -2.38434502340428     -0.72368654071065
  C   -1.29981361586609     -1.00440131454140     -0.46396619052238
  C   -0.05579575952232     -0.59311200496962      0.09240755022270
  C   0.33384798156179      0.82281125131913     -0.01917130432690
  N   1.55018575651691      1.15992336459392     -0.41991312094159
  C   2.68735603831057      0.51651918365572     -0.25607502091333
  N   3.02962992690444     -0.41882900626917      0.67330542397719
  C   2.13672563413749     -1.28475428319560      1.09266592904985
  C   0.79661570171423     -1.48064184524220      0.72817349163830
  H   0.37869869801191     -2.43922772044373      1.00783990285027
  H   2.53719380356362     -2.01869147449927      1.78730947141748
  N   3.70823244671844      0.88743754516000     -1.05324037087788
  H   4.62667415221076      0.54769447733286     -0.83650978508802
  H   3.60597813560228      1.69978230012678     -1.63273571558541
  N   -0.49224857658578      1.81064629210047      0.27093772482984
  C   -1.81450707767322      1.81440573503814      0.23960547082308
  N   -2.67240529099591      1.05872952759739     -0.48945667777031
  C   -2.39079188796080     -0.18339254378081     -0.80476213149408
  H   -3.17483266393141     -0.68054568556526     -1.36818987562302
  N   -2.41698189537368      2.78039542060780      0.95873970108916
  H   -3.39975340026622      2.93031164730022      0.82465840805214
  H   -1.85713966223467      3.50182883723860      1.37396728531653
