36
Coordinates from ORCA-job ./opt_b97-3c_parallel
  N   3.33967383412856      2.73089172810165      2.66965114035363
  C   2.78865707666777      2.06599586081322      1.88872234582954
  C   2.17802572618128      1.23152470200140      0.93009784127911
  C   2.95161392300458      0.18047237696543      0.42590535405233
  N   4.20110345152989     -0.00766062825338      0.90574545583237
  H   4.82341747659883     -0.65743581392020      0.46025450626669
  H   4.61553059654185      0.68211409853246      1.50915408252101
  C   2.55170281882440     -0.69516463536703     -0.65647479852394
  C   3.58262256437423     -1.29296942747679     -1.40562668093488
  N   4.40950132450530     -1.82694018656544     -2.02933010359795
  C   1.24923348631244     -1.10950367240815     -0.93344901998004
  N   1.02079628372645     -1.99702341063432     -1.92066975311464
  H   0.11005813090118     -2.41509611464474     -1.98456189159874
  H   1.78258836229456     -2.47813262600183     -2.37081802919086
  C   0.08792156143230     -0.61349150835520     -0.20705791163189
  C   -0.84214371894287     -1.46211372095608      0.32366485276947
  N   -0.61477592399432     -2.83169822829122      0.35747739935916
  H   0.33431762235623     -3.10870398013073      0.54950731223247
  H   -1.27376579181707     -3.36160637279198      0.90436599560787
  C   -2.11677384649981     -1.02659280000095      0.85592288496971
  C   -2.70678886903575     -1.83777033575940      1.84159322906812
  N   -3.22617241047887     -2.50925504582718      2.64081132329505
  C   -2.90836140329023      0.00158422211062      0.33671689369283
  N   -4.18827216863147      0.11209199911122      0.74588840327881
  H   -4.59466080486591     -0.57057304406116      1.36080599661332
  H   -4.76885719679184      0.86886698890177      0.43519668733680
  C   -2.48522333045189      0.96473303742522     -0.65574445705180
  C   -3.49376129154070      1.62821470539341     -1.37924473943024
  N   -4.30237511434972      2.21138629802446     -1.98209704380152
  C   -1.18629068345720      1.45587063086703     -0.78500489651960
  N   -0.95750026817529      2.56839712830322     -1.50576305733772
  H   -1.70735475388962      3.05181129898245     -1.97282981156140
  H   -0.01758151034784      2.79789382119710     -1.76930117112481
  C   -0.03587170504982      0.84977059845521     -0.13566310982964
  C   0.91171815926972      1.64343553785867      0.42141427358492
  H   0.68918096415705      2.69883533970788      0.53012259258128
