22
Coordinates from ORCA-job ./opt_b97-3c_parallel
  N   -3.18915545416481     -1.26473131817519      0.87947153307786
  C   -2.17416900400316     -0.58672771800412      0.26763821878901
  N   -0.96594208711388     -0.99520885244867      0.52139458655315
  C   0.16909155330719     -0.49237064075563     -0.02344541335354
  N   0.96887699680151     -1.33602688409392     -0.60331259376684
  C   2.29010795699166     -1.26971705244867     -0.81274171059043
  C   3.20885350932549     -0.48772237275806     -0.16456320847003
  C   2.90517472378088      0.63846305683751      0.62981276339372
  C   1.71119496646327      1.29091413436530      0.73972381526038
  C   0.46251996845683      0.94142504956868      0.13274067529654
  C   -0.45722959851065      1.88452927998897     -0.25402010769739
  C   -1.77819376823841      1.65319679107384     -0.69903439426792
  C   -2.55279905862754      0.54548164502294     -0.53930848931272
  H   -3.58209796964511      0.59297826931594     -0.87321812468088
  H   -2.25671813107871      2.49775179647935     -1.18253700549663
  H   -0.12501106318226      2.91579725162506     -0.26141781505021
  H   1.70040761878267      2.20094920750104      1.32898902196800
  H   3.74186355501290      1.09478203651984      1.14679889750763
  H   4.25399191079481     -0.72983851947790     -0.30910737544248
  H   2.65681720084239     -2.00617678898861     -1.52079663886662
  H   -4.13428164748628     -1.10858749730583      0.58528100828599
  H   -2.97205569150838     -2.17415310184116      1.24551581146325
