27
Coordinates from ORCA-job ./opt_b97-3c_parallel
  N   -4.65769799456112     -0.71600825775615     -0.91825936676849
  C   -3.56418369011291     -0.48255030495694     -0.58212898885561
  C   -2.25516528180795     -0.18744006624513     -0.18275564417740
  C   -1.82479898111563      1.14814424132540     -0.24095433617116
  C   -0.55707889094690      1.63349816854456      0.14344321369617
  C   0.64549593517983      0.98496608553740      0.34153795995147
  C   0.79518508044185     -0.46907069912378      0.23746454243876
  N   -0.19420397077029     -1.32007129643294      0.58934712517282
  C   -1.48937599242945     -1.22235514666676      0.46624379394003
  N   -2.19719244133284     -2.24960571506265      1.00062567656889
  H   -3.18808545543807     -2.32206658739382      0.85989748650894
  H   -1.68874660539150     -3.07713600855429      1.25228245364572
  C   1.96889242043066     -1.08210195365192     -0.15815233289583
  C   3.27051195689919     -0.57171192279113     -0.38062614328763
  N   3.81509909022773      0.57419005413328      0.01078070734027
  C   3.11017390066016      1.55689995450694      0.57581001639620
  C   1.76320576337783      1.78249149542091      0.71206798411954
  H   1.51360665132817      2.76288836476532      1.10129696659799
  H   3.74144687721891      2.36388818681971      0.93877811771788
  N   4.13585099320616     -1.39145243944523     -1.04397345970558
  H   3.90950431203870     -2.35874438747334     -1.18054622387510
  H   5.10918231905223     -1.15009846703383     -0.98045989797047
  H   1.85762804632091     -2.15129738257340     -0.29474663354159
  H   -0.50287833547491      2.71399811116815      0.21004329747473
  N   -2.72461747922719      2.09111557609718     -0.62924391635588
  H   -3.61031043113808      1.80606022558664     -1.00984824019127
  H   -2.39160856830634      2.99499121023518     -0.90769461693598
