22
Coordinates from ORCA-job ./opt_b97-3c_parallel
  N   -1.86616936884111     -3.15095992009355      0.34809051610772
  C   -1.59217810095129     -2.02319273753778      0.29755595009754
  C   -1.27284934175649     -0.63959786499167      0.24289438552317
  C   -2.35056488105455      0.24546221981725      0.57838999410524
  C   -2.47421158602710      1.55953143592698      0.27342141800357
  C   -1.54822448029498      2.36377932028834     -0.45615079668170
  C   -0.23804599414390      2.12826231841487     -0.66848887389051
  C   0.54638861565158      1.05704897273125     -0.06520687060276
  N   1.70052900084106      1.38449103161600      0.40691038617264
  C   2.73948673018519      0.61295991958395      0.79996010026359
  C   3.07904983860791     -0.60785483889143      0.30576233529754
  C   2.24510046882748     -1.41082546369020     -0.51458645589200
  C   0.90432729069396     -1.29425941695510     -0.69489056262817
  C   0.01907915560405     -0.30976027997790     -0.12199675732932
  H   0.42373632097766     -2.03540872467827     -1.32206417705864
  H   2.71713497101985     -2.25886998868618     -0.99633598195454
  H   4.06301718438829     -0.98950843937559      0.54598743417617
  H   3.41625953397934      1.11101657930931      1.48475468618301
  H   0.34061211895668      2.84242139338212     -1.24097937921836
  H   -1.94837326734338      3.28384871824727     -0.86687955623060
  H   -3.41225139922952      2.03213778403014      0.53508795312332
  H   -3.19815820508872     -0.23101325076918      1.05344712393429
