34
Coordinates from ORCA-job ./opt_b97-3c_parallel
  N   -5.16393540691863     -0.12335512352968     -1.16700246450484
  C   -4.14348641335185      0.07069354939857     -0.64010727676419
  C   -2.87868630634614      0.23882855682083     -0.03854667726553
  C   -2.77318484567741      1.18688891951324      1.03320717812627
  C   -1.67898648009320      1.83259003555793      1.49723214323862
  C   -0.35920609675991      1.79233531169502      0.92510488591014
  N   0.37348733523505      2.98379218433876      0.99448769429339
  H   0.00143780214235      3.65358520630020      1.64667624164034
  H   1.36467718040165      2.85893816019873      1.13169750209024
  C   0.12924704719303      0.71233383964779      0.25547437724852
  C   1.35570685566806      0.80211407423231     -0.54934556508707
  N   1.36123631234362      1.71029406823504     -1.54806254285555
  H   0.68596655673297      2.45276966710373     -1.50741537350533
  H   2.20399510605669      1.88860833734521     -2.07016389040312
  C   2.43608595347082     -0.03038950275804     -0.31580348459308
  C   3.59959252803958      0.17896586669862     -1.07916903235225
  N   4.55386493651085      0.39376553451585     -1.71319477655513
  C   2.46898004810515     -1.07289229820259      0.70024490634537
  N   3.71452995915788     -1.32038837647596      1.24542605245243
  H   4.50933928629396     -0.99480603517398      0.72082332224873
  H   3.85341443982177     -2.23930561158143      1.62958336515285
  C   1.39259918137334     -1.80146325488898      1.11954033456111
  C   0.04882712847394     -1.73175567236451      0.63905986321969
  N   -0.65485519900045     -2.94725009031167      0.61080165977247
  H   -0.18233281868065     -3.69722440984898      1.08695921281810
  H   -1.61466489947309     -2.87822731428760      0.91449307902070
  C   -0.54591296772003     -0.58597540863162      0.19190144780065
  C   -1.85033158828680     -0.59249218254711     -0.47158816472794
  N   -2.01945580444053     -1.43658507883616     -1.51358814760525
  H   -2.93837732548760     -1.56367313765189     -1.90731062891097
  H   -1.38488571738106     -2.21287669675930     -1.58872748560121
  H   1.59494378184427     -2.58109088419996      1.84814280125073
  H   -1.83755214971433      2.55336101983191      2.29196963448046
  H   -3.71874866893185      1.45278847411417      1.49098528336267
