28
Coordinates from ORCA-job ./opt_b97-3c_parallel
  N   -1.99429237558435     -3.69783394427839      1.63412820191609
  C   -1.66961551131196     -2.67942090151411      1.17629908107778
  C   -1.21478593645711     -1.47354007351917      0.58959165451973
  C   -2.12239076150266     -0.46338085689960      0.43959886126844
  C   -1.96463878217505      0.82687517487621     -0.13712688244158
  C   -3.13951169274702      1.49773645483666     -0.54522700596659
  N   -4.05838154430481      2.11241948404685     -0.90745859137303
  C   -0.77113945982271      1.54547271995704     -0.23318305384580
  C   0.49551941440242      1.01397584726940      0.26475410949201
  C   1.34721725328313      1.80605287518272      0.97547037791617
  N   2.53396344311071      1.44735066805555      1.53570666372913
  C   3.32289286330285      0.55309341111028      1.01994513843823
  N   3.30008034017817     -0.04190311450393     -0.20318183644748
  C   2.18926976989491     -0.35489636588719     -0.79633926198630
  N   2.19510325048944     -0.67836985392024     -2.10586187851987
  H   1.42973064988215     -1.21534265318498     -2.47378969815862
  H   3.08575506597324     -0.75938924770324     -2.56728562098488
  C   0.86289758258173     -0.34256797530136     -0.11977380481660
  C   0.14794874787090     -1.47807238750837      0.06537165749462
  N   0.65460081512550     -2.71134434506565     -0.33165160100692
  H   0.14820501860113     -3.50921010906284      0.01855847381844
  H   1.64664581215413     -2.82456921234876     -0.19686551533421
  H   4.21834105496462      0.33188998611485      1.59273951694998
  H   1.02676772936702      2.81034499282940      1.23481322300385
  N   -0.76155299948831      2.78943207779150     -0.73404804657408
  H   -1.60178648987387      3.22170861531250     -1.08272850625808
  H   0.10666966362401      3.27653399331097     -0.85059025877063
  H   -3.13135579465197     -0.69005295259977      0.75891116525331
