27
Coordinates from ORCA-job ./opt_b97-3c_parallel
  N   0.03366970079278     -3.59194002544762      0.64763113250768
  C   -0.27001492175927     -2.48076296089880      0.46365378618300
  C   -0.71014121277361     -1.16264616152660      0.24319518914752
  C   0.31751383997919     -0.19151101704565     -0.00029948863658
  C   0.06605276979826      1.24019832368009      0.19585590719725
  N   -1.06083849345483      1.86755733834522     -0.07319999185132
  C   -2.27920292871630      1.39824423579315     -0.36331395667267
  C   -2.82894758246079      0.15734662186710     -0.07447650387685
  C   -2.12331138456078     -0.99787961952681      0.26173446225854
  N   -2.87033519816526     -2.08201712236614      0.60867378241756
  H   -2.44326953037743     -2.99134326169433      0.65006595041562
  H   -3.85790960998640     -2.06266726575384      0.43769540744213
  H   -3.90439052672665      0.06052196464634     -0.16340022868588
  N   -3.06499938614327      2.33353415734626     -0.97560799608712
  H   -2.76448969476542      3.28773782717782     -0.88521151841095
  H   -4.05277595701047      2.17540101998027     -1.05268688387899
  C   1.08008794648729      2.05916491664742      0.75134124726235
  C   2.44812891640539      1.91634825166232      0.78058331547012
  N   3.27811811149407      1.02801374256758      0.24243097655339
  C   2.85052564566368     -0.08650817269540     -0.34997804488275
  C   1.56445104476919     -0.66795993597491     -0.37795086891098
  H   1.56562699516797     -1.69893247422203     -0.70906322149877
  N   3.84507855204629     -0.78557529264243     -0.97036287159130
  H   3.70473226815181     -1.75093305424332     -1.20564624266555
  H   4.78180152914144     -0.50762811190189     -0.73469534651299
  H   2.97266988615024      2.72231673078198      1.28744504885851
  H   0.70083209055295      2.99195293954833      1.14871136294933
