28
Coordinates from ORCA-job ./opt_b97-3c_parallel
  N   -5.14342730346332     -0.70914914435663      0.08656469027583
  C   -3.98612431402651     -0.58983398636142      0.09217556055361
  C   -2.59238337140699     -0.36360326709036      0.06490005506112
  C   -1.77023796449047     -1.39990071693507      0.47428152325808
  C   -0.38868204712618     -1.53783136000379      0.45930382033636
  C   0.10259497070984     -2.82082971049767      0.82183234095232
  N   0.46922979116318     -3.87635496740550      1.13866525670272
  C   0.61975013012985     -0.61319101723768      0.03009242858176
  N   1.74658779310886     -1.18429130630358     -0.33294910230396
  C   3.00897010102619     -0.79854178808296     -0.39305935701530
  N   3.81983325104109     -1.63965622577139     -1.06844849486041
  H   3.46568421764852     -2.54311376378953     -1.32763066225261
  H   4.80510169444715     -1.47014947387180     -1.13650096169364
  C   3.55709675662765      0.35327970229588      0.21017756187664
  C   2.81340519979506      1.45536621152120      0.52829994138455
  C   1.44021067056327      1.71247901745712      0.37348014832299
  C   1.06710769694222      3.04664621020278      0.66488074900783
  N   0.76326535561256      4.14597441848717      0.89480362688558
  C   0.37484256015472      0.82576279410594      0.00438211486420
  C   -0.84575131663355      1.40154486415903     -0.34208726036685
  C   -2.15661622464944      0.92119628322248     -0.38521570591093
  N   -3.10469754524440      1.77143572566095     -0.83606972680091
  H   -2.87504484939825      2.73023465622583     -1.02126303966051
  H   -4.08023272340993      1.54137017739472     -0.75595990277735
  H   -0.77812027123392      2.45985260064830     -0.55982643122568
  H   3.37431223015094      2.29539041092206      0.91806205408317
  H   4.62985905838988      0.40552514663516      0.33737199567576
  H   -2.29788888972860     -2.28196641642991      0.81135612834778
