27
Coordinates from ORCA-job ./opt_b97-3c_parallel
  N   -5.22968464003103     -0.22540563486783      0.72961337733179
  C   -4.07556216208862     -0.30801400460277      0.60285167754815
  C   -2.68503772830174     -0.37077388160517      0.39077177474288
  C   -1.92893545280387     -1.28130521307348      1.12261746455189
  N   -0.69664527687724     -1.69169519367534      0.92035035107531
  C   0.26197250953145     -1.14494250006212      0.18446693291225
  N   1.19977829557586     -1.92704567807271     -0.30061091289772
  C   2.47833750084091     -1.61963102019718     -0.48841801865141
  C   3.19056540904811     -0.54474006114965      0.07242640119573
  C   2.67566408681534      0.67940556974933      0.46960751522897
  N   3.52662772389232      1.58520630126944      1.02070865903709
  H   4.51496881865737      1.43319528490484      0.93923976455441
  H   3.23745683486961      2.54552602773193      1.09800225045913
  C   1.31992389018452      1.11896519074388      0.26760057556199
  C   1.08934251799572      2.50926507211984      0.32631905630847
  N   0.97807126361043      3.66467170551974      0.40816017280094
  C   0.22983263858867      0.31259846750932     -0.06783883373478
  N   -0.83605066852254      0.86277998255060     -0.63825804866826
  C   -2.10407841890758      0.51185121603854     -0.58325821966959
  N   -2.91649618607006      1.10452145773700     -1.48319716806565
  H   -2.55443497810640      1.89807044163112     -1.98115762185550
  H   -3.91366003830844      1.01433578105292     -1.40061596941275
  H   4.26557272671027     -0.66090664787750      0.13956970772836
  N   3.16290271526107     -2.52388460045440     -1.23920728918809
  H   2.73840236945927     -3.42530983293928     -1.36645782993178
  H   4.16285911339038     -2.47607801886742     -1.29315721004144
  H   -2.43933459121210     -1.78225781562328      1.93915115878335
