24
Coordinates from ORCA-job ./opt_b97-3c_parallel
  N   -2.83923092014947     -3.24856280185063     -1.51270654896909
  C   -2.34676390194233     -2.31294471192201     -1.03310298187311
  C   -1.70615566940475     -1.19660191481724     -0.43312816040313
  C   -2.38363309882446     -0.02606708427528     -0.37237359633363
  C   -1.92626026179098      1.22743077393687      0.18907257346214
  C   -2.94457307399904      2.18574304762494      0.44438894453782
  N   -3.78903099645470      2.95687411362345      0.64518517709438
  C   -0.63286900326667      1.62355042330445      0.37352461876791
  C   0.56658500596446      0.86862716565612      0.15706918787827
  C   1.71149319171206      1.55380378068113     -0.16758088056710
  N   2.92047122003237      1.07548479154629     -0.52784354860050
  C   3.37106922536762     -0.09335235208728     -0.16676004818761
  N   2.96926476796897     -0.83565893828194      0.93613685024212
  C   1.73891893350887     -1.01806428479010      1.21086402773671
  C   0.57083607664803     -0.57866675785384      0.41419913887785
  C   -0.40932167763994     -1.46090390961365      0.17751823650717
  H   -0.25057622552977     -2.48720772112459      0.48891773694614
  H   1.52750334751376     -1.53784838807228      2.14434444118341
  N   4.43668350375066     -0.61978670198639     -0.80807293009775
  H   4.90396600997348     -0.03544115449826     -1.47877353195082
  H   4.97930309526868     -1.31852455469526     -0.33358033841390
  H   1.62681605032441      2.63198394933978     -0.25974464388362
  H   -0.49338669646792      2.65654578237221      0.67242268700965
  H   -3.38889820885939     -0.01285037321672     -0.77151064286722
