26
Coordinates from ORCA-job ./opt_b97-3c_parallel
  N   -1.17947364890175     -2.40382489664369     -0.67045559645247
  C   -1.29074805826627     -1.00841657211218     -0.53720729976760
  C   -2.54618371842743     -0.45153224263965     -1.00330810460106
  C   -3.18914959122602      0.62089621232149     -0.50171150267822
  C   -2.74376935743421      1.54452994465604      0.50500674098750
  C   -1.46528792550109      1.80261871162765      0.85031729960886
  C   -0.28781774708394      1.14969248195326      0.31644065509265
  C   0.86597102032694      1.85405710972846      0.14195355598707
  N   2.03432140364250      1.44243554149094     -0.41677250139859
  C   2.45809437776246      0.21187035915704     -0.37096602427522
  N   2.06272358615037     -0.80885597955548      0.46262395342503
  C   0.81545627689800     -0.98650235618990      0.75738738712302
  N   0.49242861953663     -1.81555301472136      1.78093326705754
  H   -0.42237487243158     -2.23181501367722      1.77491279015639
  H   1.23855050368509     -2.36020695979886      2.18034613502648
  C   -0.32305818926734     -0.29909981469432      0.09108586255204
  N   3.53027312182478     -0.12562478305098     -1.16096768477480
  H   4.04358094514156      0.66342557260607     -1.51647401968740
  H   4.09431858815352     -0.88118524381996     -0.81151548421693
  H   0.84661047879886      2.91186108140161      0.38940520028956
  H   -1.29620952090439      2.60993826203491      1.55717915646205
  H   -3.51580501659471      2.15695552949873      0.95561501160122
  H   -4.17882228318879      0.81653395494770     -0.90069863322151
  H   -3.06926523838786     -1.03465038089799     -1.75496902179025
  H   -1.83026964463809     -2.79567101206693     -1.33100171447558
  H   -0.24434841556698     -2.72531952555485     -0.86924262382922
