32
Coordinates from ORCA-job ./opt_b97-3c_parallel
  N   -4.19996283507958     -1.54565394954033      2.11995555291709
  C   -3.41380088167422     -1.03803662047850      1.42527923522038
  C   -2.50011660936838     -0.37849779931276      0.58083944340372
  C   -2.83436895171490      0.90948594345407      0.15957421806325
  C   -2.07266624051521      1.70770562579538     -0.74191239918136
  C   -0.72772991604628      1.66979404842226     -0.97733885120411
  N   -0.14926024717359      2.63269238627750     -1.75771315882768
  H   -0.74041272882180      3.22905901293059     -2.31094433087436
  H   0.74875621396953      2.42412623571762     -2.15572249510996
  C   0.20783797850803      0.70490526724977     -0.38721378618218
  C   1.39562560576038      1.14623818917415      0.08861120902100
  C   2.49979393924491      0.37854575551426      0.58127535228945
  C   3.41328287662500      1.03841349768498      1.42567136001679
  N   4.19928186024966      1.54630161954821      2.12033333534838
  C   2.83414275154857     -0.90960361202461      0.16059285697592
  C   2.07265090960401     -1.70817467241555     -0.74076214250954
  C   0.72776987379499     -1.67035400320887     -0.97651687360350
  N   0.14947991310535     -2.63355448647723     -1.75665069404902
  H   0.74075828417246     -3.23013759626181     -2.30951315019210
  H   -0.74844402754137     -2.42514141151808     -2.15494810963572
  C   -0.20793414668122     -0.70523389179278     -0.38698547045760
  C   -1.39583141885702     -1.14638091110232      0.08873701287387
  H   -1.53054521736521     -2.22001817474764      0.14615709637008
  H   2.63138359636208     -2.49774879008397     -1.23190991665040
  N   4.04864618556578     -1.43240061021712      0.51066619542218
  H   4.58349004255411     -0.95259790151246      1.21577296977122
  H   4.14016922625713     -2.43200083606436      0.51883009736676
  H   1.53032749679488      2.21989840644420      0.14564202698629
  H   -2.63128359748835      2.49708713210100     -1.23349991681016
  N   -4.04895664258555      1.43241556179017      0.50915605238579
  H   -4.14048673232536      2.43201809940648      0.51690585336481
  H   -4.58396663207815      0.95288593024861      1.21432194589027
