30
Coordinates from ORCA-job ./opt_b97-3c_parallel
  N   4.85318719134691      0.70825082365356     -0.49750289155709
  C   3.77620443923919      0.39276112223227     -0.18540865674241
  C   2.44734519311055      0.06965875391882      0.15298595410959
  C   2.24987619602698     -1.02202467961711      1.06895129294147
  N   1.22465577904997     -1.77588372368510      1.28619594777039
  C   0.06225248816632     -1.70418698507633      0.54489785009717
  N   -0.53774994665400     -2.96458235014677      0.40552427985508
  H   -1.54438061599595     -2.94499585613540      0.48640790028878
  H   -0.13571870860657     -3.61132452873506      1.06692089061017
  C   -0.48506725905042     -0.60377406798382     -0.03187502798667
  C   -1.67912567697302     -0.72457702893638     -0.89768973812031
  C   -2.83465774763884     -0.04599070673411     -0.67122926656890
  C   -3.04636437633971      0.99061775309896      0.29711180505485
  C   -2.08160348173574      1.82074051058491      0.81501802345713
  C   -0.70229035687668      1.81124547337057      0.51285019729486
  C   0.05038372483624      0.75049902400992      0.10212441756865
  C   1.44293397206565      0.93806910283861     -0.27737873972905
  N   1.74835555699583      2.03479577391620     -0.99188172318577
  H   2.69135619731445      2.20935358257319     -1.29929567922641
  H   1.00854879568790      2.58062766802850     -1.39197268605880
  H   -0.17930311365623      2.74733543012877      0.68258219726412
  H   -2.42675175408730      2.63856635764635      1.43854648744004
  N   -4.38424559953154      1.25946089554201      0.56117908751821
  H   -4.55305513306946      1.86422040450818      1.34758171311483
  H   -4.98863770034023      0.45491492276172      0.56910834356803
  H   -3.68018292923989     -0.25306994902784     -1.32111484888089
  N   -1.52024552344611     -1.53814254764096     -1.99203059487395
  H   -0.89545072665641     -2.31921502175221     -1.86666212358480
  H   -2.34352979766489     -1.75550343746935     -2.52937020300262
  H   3.13294422702489     -1.28149617457047      1.64950518296446
