27
Coordinates from ORCA-job ./opt_b97-3c_parallel
  N   -3.96000665118229     -0.33360192494975     -0.86293913397729
  C   -2.66075209601676     -0.43673026825147     -0.40593203775904
  N   -1.99260343513062     -1.47450185779710     -0.82339640291496
  C   -0.73881598265923     -1.78115939294912     -0.38906811372408
  C   0.25959456494507     -0.93582640992148     -0.04318728555511
  C   1.57717816662585     -1.42853034313935      0.40053833306685
  N   2.71705423628856     -1.05702384322211     -0.10647727854823
  C   2.83380082750330     -0.06483178733988     -1.01902293455097
  N   2.17324289353854      1.03985766057034     -1.19374987104494
  C   1.04477665983482      1.37483786222538     -0.48650233164862
  N   0.88108151889118      2.76602232059968     -0.37254201957975
  H   -0.06323166397578      3.07745502376823     -0.55028855085663
  H   1.52713120660081      3.23085793377402     -0.99279879766264
  C   0.13031157884234      0.51382410986294      0.04619725369509
  C   -1.02617297160214      0.98013347297784      0.83273148250276
  N   -0.74021743077942      1.82859860365748      1.86991437778536
  H   -1.51175812072790      2.29381567333929      2.31852399474184
  H   0.08386518637379      2.39836566532041      1.75855816988873
  C   -2.29172251338946      0.54717461327597      0.58462413631488
  H   -3.10681342892991      0.96267465429715      1.16906045295423
  H   3.70684349786463     -0.17452590247004     -1.65712691991443
  N   1.58663057717555     -2.34833625020269      1.38783611930491
  H   2.46790449947038     -2.60764445813248      1.79783666443822
  H   0.74247681648133     -2.53801567683386      1.89363909528501
  H   -0.51679792902953     -2.84466548222290     -0.41239149501107
  H   -4.16128312649792     -0.94970967324681     -1.63400024641391
  H   -4.32729357171533      0.59645950051081     -0.96799434541637
