26
Coordinates from ORCA-job ./opt_b97-3c_parallel
  N   3.98646838399291      2.01007438419419     -1.66931016373398
  C   3.22223834160633      1.28841123324491     -1.17287996410742
  C   2.27638110794435      0.43239811363570     -0.55762351232692
  C   2.58354263386672     -0.90602494901158     -0.47818899708573
  N   1.96830007864065     -1.88469645363186      0.21026916557277
  C   0.70292771127436     -1.92030773850655      0.51564310627150
  C   -0.34029742402750     -0.99428379600731      0.03469248748411
  C   -1.50416898263900     -1.45692356999995     -0.49633439610374
  N   -2.54026388316147     -0.75390870568239     -1.00929216472449
  C   -2.81499940846319      0.47243041199747     -0.63860165523839
  N   -2.40295822569027      1.16632034502683      0.47122730459502
  C   -1.18688805197976      1.13392919885822      0.91335284342199
  N   -0.89303727856239      1.81223165059569      2.04284670375689
  H   0.00221207004663      1.70040061760533      2.47864697336513
  H   -1.64077023289068      2.23289298983514      2.56711806086767
  C   -0.06211558283852      0.41950711803506      0.26439236409051
  C   1.10277075410718      1.04891295218295      0.00513941304335
  H   1.16402920171335      2.11338203782239      0.19667924255688
  N   -3.73421872391008      1.15005631676993     -1.37705310892066
  H   -4.26613194824999      0.60895327640263     -2.03538562836056
  H   -4.18904318247383      1.93188890046216     -0.94247665175482
  H   -1.60284762702828     -2.53134905770563     -0.62355872700599
  N   0.29098149661113     -2.91752298203568      1.32595880585922
  H   -0.64909515384044     -2.93949627725468      1.67037073524185
  H   0.97396967777813     -3.54556724870000      1.71298745126007
  H   3.51206531367353     -1.21953103613263     -0.94235284022317
