21
Coordinates from ORCA-job ./opt_b97-3c_parallel
  N   -2.93270157753272     -1.31548454691760      0.89356096758465
  C   -2.10851728682358     -0.52058193253221      0.17029730753610
  N   -0.91087682839015     -1.07098877099211     -0.09988853101651
  C   0.19774264952737     -0.45877728254134     -0.39264155831837
  N   1.12980968793698     -1.17690556006736     -1.06237501351794
  C   2.38560389907359     -1.31691734118230     -0.76434763648165
  C   3.12040941760742     -0.67530599210679      0.25181522694481
  C   2.77786061175228      0.55552480414982      0.76574976611558
  C   1.64930016584679      1.33523696833138      0.48703197725518
  C   0.46301027562900      0.95593350135153     -0.12374897621148
  C   -0.52873067948494      1.88686333005086     -0.52420793325621
  C   -1.88300277827729      1.66330675943224     -0.62388381303685
  N   -2.64085958486738      0.62579617165341     -0.24823506331014
  H   -2.46992321021334      2.50222195999712     -0.98706160054754
  H   -0.19289705923578      2.89335558435175     -0.74234018430821
  H   1.68601994986068      2.36181209397883      0.83203009323108
  H   3.51920393754394      1.02928058944422      1.39935977466698
  H   4.10002031549639     -1.07314381935502      0.48115787779087
  H   2.93745286996759     -1.98601347162076     -1.42147140719516
  H   -3.90063555076509     -1.05194271238980      0.93141577282605
  H   -2.69776765205129     -2.28735651293587      0.97780020364892
