30
Coordinates from ORCA-job ./opt_b97-3c_parallel
  N   -4.27241751683083     -0.63219736774145      2.18739953798143
  C   -3.42660133884707     -0.39531395132152      1.42269498928307
  C   -2.43610910492991     -0.05491121925546      0.47861990970220
  C   -1.44640314357212     -1.06486810974332      0.16926063112452
  C   -0.18743617580667     -0.87504247897126     -0.27381053883203
  C   0.60797934921518     -2.03676021715986     -0.70218966024651
  N   -0.06812723517236     -3.01061093225684     -1.36838031257485
  H   0.44509400638395     -3.74487413536550     -1.82451749006573
  H   -0.96214444678972     -2.78375985926077     -1.76368935162254
  C   1.93058660292684     -2.21468942411391     -0.37627970778063
  C   2.75274678649681     -1.33783473330385      0.34310202189404
  C   2.62171483725064      0.01550785969432      0.54820236747905
  C   3.63172614750948      0.65863768138168      1.30075469784359
  N   4.45069295162939      1.22715723190381      1.90139069448077
  C   1.62648799443532      0.86925776870736     -0.07721102379152
  N   1.98958159621563      2.19143306083888     -0.28372067560040
  H   1.26156165871014      2.87044983822377     -0.14224187970268
  H   2.85957986281649      2.47766534838601      0.13424963903472
  C   0.40046291940991      0.45040117848239     -0.51898605798849
  C   -0.38500857526311      1.35043029457690     -1.34031510492875
  C   -1.69800694957622      1.61746418126828     -1.22967612462373
  C   -2.59376654797081      1.14367082780284     -0.19281545514362
  N   -3.69197090119148      1.92443775938743      0.01313836220385
  H   -4.29429947835027      1.71358267714673      0.79178452790278
  H   -3.63908948977562      2.89454889052099     -0.23924099537082
  H   -2.13895483648072      2.30427026797804     -1.94345054675372
  H   0.15859718758415      1.87540186853075     -2.12326384723245
  H   3.64986720190279     -1.78310420068646      0.75592270987144
  H   2.37084340815834     -3.17302320486172     -0.62730342525889
  H   -1.77103907889073     -2.08353115369083      0.34580179871542
