31
Coordinates from ORCA-job ./opt_b97-3c_parallel
  N   -5.34075574767991     -1.07886874178348     -0.05913302974935
  C   -4.17965208100446     -1.01238840337619     -0.11519395610251
  C   -2.77637964027540     -0.87778907467756     -0.15009163874155
  C   -2.24045480673347      0.28822009375065      0.41929199255810
  N   -3.08207179550383      1.14308141642907      1.03549438390188
  H   -4.07336826505906      0.97930636175019      1.00286483928007
  H   -2.76946707048270      2.05229374139416      1.32819551256046
  C   -0.85180490414609      0.67762956576634      0.35222979176121
  C   -0.60640628788906      1.97082013503125      0.87823352034088
  N   -0.49849002805528      3.00669786516215      1.39702221313899
  C   0.28707603723870     -0.00157242551743     -0.11344638959913
  C   0.39237305205576     -1.44591557569374     -0.25392445734213
  C   1.54310307599436     -2.15811031348331     -0.01243799232552
  C   2.82002768824540     -1.74504378482078      0.44206031250657
  C   3.34474342848257     -0.47028261331256      0.38402452857392
  C   2.76493658498878      0.65061107479922     -0.22842929984626
  C   1.38946831168108      0.82343600279376     -0.53132364895973
  C   1.07110155225636      1.99902794588715     -1.23986474679973
  N   0.90014397625501      2.96368947164695     -1.87042075789114
  N   3.59051368276921      1.69188413499860     -0.48215149581537
  H   4.58389851900657      1.57780734859547     -0.42479071836435
  H   3.24142968922847      2.53843079033263     -0.89651645236635
  H   4.36101650457787     -0.34202337037677      0.73773993486613
  N   3.63381930354535     -2.75833276697176      0.88816476195826
  H   4.46860104526693     -2.50163038240970      1.38439312656057
  H   3.18871573511605     -3.58663347117253      1.24154198512678
  H   1.43952513665066     -3.23082182534169     -0.12540829955830
  C   -0.71933823422689     -2.19631632443169     -0.76183862482019
  C   -2.04983630822835     -1.93878300645345     -0.73473002384060
  H   -2.67372378720016     -2.69986032636941     -1.18583995758238
  H   -0.43949951177458     -3.13286226714568     -1.22753869712897
