32
Coordinates from ORCA-job ./opt_b97-3c_parallel
  N   5.60299788646117      1.44166399058124     -0.17674123471408
  C   4.48104895054010      1.18140123472932     -0.01542299870962
  C   3.12493094778666      0.82142022759726      0.12631135584215
  C   2.34313821845799      1.56705073568851      1.02485786441682
  N   1.05232408286001      1.64991118232907      1.10928213846861
  C   0.08732925409063      0.97763450726179      0.46475558855890
  C   0.24198485579802     -0.45648887153956      0.25811518550415
  C   -0.78342210895386     -1.34353599420977      0.69147900685028
  C   -0.38714283501081     -2.55536838200639      1.29171031488357
  N   -0.13832573172864     -3.55207127114853      1.83862351141861
  C   -2.17690027390112     -1.17372709528041      0.49963580205147
  C   -2.79262650857063     -0.09412322369513     -0.20543736007240
  C   -4.11167728131904     -0.31692232463111     -0.64360962981832
  N   -5.20764023525598     -0.48083383890115     -1.00153968386798
  C   -2.28945814418703      1.20606596620249     -0.40770686829642
  C   -1.03913341245032      1.70193778533685      0.09443419477869
  C   -0.92719265615333      3.10946320633477      0.19218943733956
  N   -0.92241299000388      4.27152115229896      0.20987564191929
  N   -3.07001357581042      2.09655613085442     -1.04251572677882
  H   -4.02187860895409      1.87395730404374     -1.27778723037231
  H   -2.78844123898101      3.05911104733606     -1.11258850836987
  N   -2.98417198552903     -2.16197272056740      0.91849569776526
  H   -2.59884732206249     -3.01950804447389      1.27662247188943
  H   -3.96978365203946     -2.14125284017850      0.72429836269219
  C   1.40991041652623     -0.97364380566681     -0.32151004736325
  C   1.31016390230707     -2.27507598233633     -0.86907658924965
  N   1.30356796274063     -3.30718905818355     -1.40403551716782
  C   2.68492644677570     -0.34198982370972     -0.54590423598866
  N   3.54492619856663     -0.96037923301721     -1.36872641682847
  H   3.33335953772961     -1.86416082109626     -1.75608770899273
  H   4.48571910609720     -0.61848687051438     -1.46792600066517
  H   2.88516334547483      2.20047026436049      1.71978736767694
