27
Coordinates from ORCA-job ./opt_b97-3c_parallel
  N   -4.22914776224979     -1.73110332334393     -1.95519874998212
  C   -3.55439520551997     -1.06357017439827     -1.28668508811631
  C   -2.71025492814056     -0.26003002206614     -0.47471596811558
  C   -3.20669164234155      0.93877640700772     -0.03411746509545
  N   -2.69070790205010      1.68829779169845      0.97741557882152
  C   -1.44572593951768      1.84464938325622      1.21185225712442
  C   -0.32641885794166      1.35951106927228      0.37732812845683
  C   0.63761306585958      2.19965338389655     -0.07093739031887
  C   1.82045172762845      1.87444290857628     -0.77024375968028
  C   2.50364483452947      0.68861645598512     -0.72211128505216
  N   3.64349543323348      0.52716397835633     -1.47554048678258
  H   4.29673895848562     -0.18584929574556     -1.19826546851451
  H   4.08444093806179      1.36632094136973     -1.80920644900943
  C   2.15992939829408     -0.43580942208088      0.13866492841327
  C   3.22187078905346     -1.27605480510606      0.53011849266036
  N   4.07575238995884     -1.99185773125061      0.86899177934628
  C   0.90420515024280     -0.79325864428764      0.60187428231481
  N   0.73762929400593     -1.87850375253655      1.39051281797508
  H   1.53131156760695     -2.36343810538859      1.77530358174087
  H   -0.15017757928088     -2.02450793155889      1.83289954088879
  C   -0.32992228888838     -0.08723444507744      0.22457128501121
  C   -1.42406906418892     -0.80780967845414     -0.13961046568969
  H   -1.31235080143301     -1.87578806807690     -0.27242001695303
  H   2.27108433668055      2.67080202410846     -1.35077702931097
  H   0.46112801819467      3.25902690730788      0.08878642501311
  H   -1.19187497140714      2.35669760048572      2.13938950311620
  H   -4.17755366617348      1.26209714264687     -0.38607943676442
