22
Coordinates from ORCA-job ./opt_b97-3c_parallel
  N   2.66313968152295      2.20051363994703     -0.92952792065194
  C   1.87668992484781      1.23242613928189     -0.38314803441615
  N   0.60603922233691      1.61130370280993     -0.21019810958466
  C   -0.42336105956284      0.81454122116335      0.01923373341197
  C   -1.54302567081229      1.27279642416204      0.72970714219533
  C   -2.79953024376619      0.68592212496256      0.81654666114899
  N   -3.39601544325117     -0.22592613403571      0.05296512640658
  C   -2.73820701183155     -0.81038888011123     -0.95429888027764
  N   -1.46484962670894     -1.04047999150347     -1.12676051767787
  C   -0.43939199450774     -0.60511171706192     -0.38246905354159
  N   0.50904217527136     -1.44649779524482     -0.06935696835932
  C   1.76643803603981     -1.14291385914426      0.29102897871936
  C   2.47104874981695      0.02472732905691      0.00453832427232
  H   3.55024021344817     -0.00013096321381      0.09482540717788
  N   2.39855702230512     -2.16134310332531      0.93722743439500
  H   3.39251961247000     -2.12329965449211      1.06695039371095
  H   1.98780419157126     -3.07307767763251      0.84221137973333
  H   -3.37983204664359     -1.21337024313513     -1.73312565702502
  H   -3.45263238563978      1.10384257024485      1.57844660052191
  H   -1.38304824761878      2.17109314603075      1.31344041730371
  H   2.29983883609171      3.13673445930866     -0.91428269117309
  H   3.66057472882161      2.09646684863272     -0.91981624178913
