26
Coordinates from ORCA-job ./opt_b97-3c_parallel
  N   -3.79892609637725     -2.08816405000312     -0.70910795836407
  C   -2.87332780787575     -1.44075039978789     -0.42327924190486
  C   -1.78644542919737     -0.61035449592128     -0.08693428046883
  C   -0.60219153214166     -1.23886258632365      0.41569971705674
  C   0.65952024959941     -0.74533103463168      0.43821520437964
  C   1.75626863986379     -1.51105679845739      1.02659907630735
  C   2.99526949118025     -1.64313898939931      0.51540639884287
  C   3.51761809118847     -1.03957965442760     -0.68087973585125
  C   3.08521034386733      0.09361809585853     -1.27576088919564
  C   2.03483751595374      0.95017346843169     -0.80337287006208
  C   0.98753314817324      0.60222638660063     -0.02668580717902
  C   0.08393610438762      1.65368004277417      0.50888810208189
  N   -1.19292828976163      1.72773084776756      0.32873690563268
  C   -1.97437572003168      0.76609110602762     -0.22537528837599
  N   -3.07211016743558      1.26455235421281     -0.86350291178420
  H   -3.83393674397732      0.63656630749821     -1.05850493541239
  H   -3.32858843543442      2.20310204313259     -0.61330858246716
  N   0.68926463873933      2.63350126873237      1.22295001224062
  H   1.63811919477212      2.50162976581686      1.51869766821219
  H   0.10931415560179      3.25412311573757      1.76190786603731
  H   2.10443488980440      1.99081244183033     -1.10235104265436
  H   3.64665546947718      0.45739942122426     -2.12824684797096
  H   4.39690757974135     -1.51426554553884     -1.10108813255878
  H   3.67147570680877     -2.31211197397132      1.03593183699988
  H   1.53039090403404     -2.05667855843907      1.93736799221706
  H   -0.73275177135974     -2.25761962774381      0.76157566284128
