27
Coordinates from ORCA-job ./opt_b97-3c_parallel
  N   3.81600824962266      0.39004154345100      1.77683416544400
  C   2.94724159671555     -0.15794229935644      1.23071575861872
  C   1.88929694460781     -0.81019691894999      0.55198556108227
  C   2.06622772259417     -2.14925408174330      0.28898759925917
  C   1.20790791611257     -3.04098855636151     -0.36103674704224
  C   -0.11777897823301     -2.84022074215142     -0.64212170220860
  C   -0.93634019948423     -1.73431133668180     -0.34706612259108
  C   -2.32947694012372     -1.93390234183212     -0.54042107661677
  N   -3.45760565627654     -2.14230333654658     -0.72465902846376
  C   -0.57897373828295     -0.44398018493138      0.11232891721735
  N   -1.58324090394679      0.29929919277723      0.56614984817819
  C   -1.81034364383575      1.59312445993958      0.49370673754219
  C   -1.09165291630720      2.56090370609113     -0.24729653629760
  C   0.24494007073974      2.44811840155650     -0.55460559700099
  N   0.86792080261563      3.47719741537833     -1.19779872725503
  H   1.87081050637294      3.50389990243658     -1.21401494809515
  H   0.41384056772066      4.37117618935858     -1.24531484637437
  C   1.09590239285568      1.34650661661086     -0.21816825718989
  C   0.79413569696007      0.05725138692570      0.11013196304658
  H   2.15317921239529      1.57801958860610     -0.25434931740321
  H   -1.58841801995749      3.49955276252126     -0.46073042910626
  N   -2.89631980941830      2.00868331520468      1.19335605841055
  H   -3.22244093408025      2.95310896720127      1.11891053491570
  H   -3.54890693813171      1.30702817489886      1.49459717008588
  H   -0.64246930044825     -3.67619391455083     -1.08677606437610
  H   1.61365087539241     -4.01588971593792     -0.59324184434597
  H   3.01437082221955     -2.55861629811774      0.61527321136267
