24
Coordinates from ORCA-job ./opt_b97-3c_parallel
  N   -3.79312644117476     -0.82774108900515     -1.12299789040690
  C   -2.77583120267524     -0.36383154044077     -0.33841857707408
  N   -3.12929020579138      0.69852057704767      0.40708967298236
  C   -2.25476642826060      1.35630365380379      1.14900433151017
  N   -0.94962963543360      1.48116042489657      1.07677690445032
  C   -0.07750349960278      0.76756119444349      0.36521441162329
  N   0.98858532135306      1.39533125181269     -0.07509831405129
  C   2.17058300850327      0.87005593126140     -0.39957429091888
  N   2.77434390449988     -0.24000848256324      0.02365582748646
  C   2.09362392753272     -1.31728260670022      0.42563799242306
  N   2.89456109894624     -2.30607763247400      0.91902564844369
  H   2.52371518537659     -3.23149149802702      1.02883636808016
  H   3.87345179880624     -2.23150007067041      0.70516938827801
  C   0.71648219202100     -1.58087305083795      0.33274108152831
  C   -0.31363233448347     -0.66759398534461      0.12300991608753
  C   -1.56906635194907     -1.07700113552527     -0.33330252411328
  H   -1.60205753134609     -2.06870903946597     -0.77142468973483
  H   0.42263542607772     -2.62067315824900      0.41906671663058
  N   2.92503801678874      1.65436501298803     -1.21403437343513
  H   2.65927584597704      2.61924192379679     -1.29149472577465
  H   3.90154923760846      1.43124690710329     -1.27889100798748
  H   -2.71105995497237      1.97296874219486      1.91956009875600
  H   -4.71134380474569     -0.49672767058768     -0.88290309841474
  H   -3.73444185925605     -1.75059840245788     -1.51260997696897
