28
Coordinates from ORCA-job ./opt_b97-3c_parallel
  N   -0.56414820168375     -4.07987171223440     -0.47154504825363
  C   0.01526830031948     -3.07596402093652     -0.39383009306518
  C   0.76767366426193     -1.87507045231420     -0.32151977729677
  C   2.14256536599758     -1.99280444174087     -0.61023241408655
  C   3.16678340719812     -1.11971958347209     -0.41692670880591
  C   3.11003421367003      0.18658530994778      0.13115318833430
  N   4.29660319766591      0.74143211332210      0.45665880826304
  H   5.14784087404121      0.22526235727408      0.34507441410949
  H   4.36038368268232      1.68124711665077      0.80742410467013
  C   1.93905719719155      0.95816837734069      0.29633927730526
  C   2.15801854603161      2.27812414637426      0.74173984653105
  N   2.41699491572200      3.34849749684989      1.12073010633135
  C   0.58449705875994      0.62761153142853     -0.04999220770566
  C   0.04984697984848     -0.72771880729613      0.05877940743557
  N   -1.16041848528928     -0.95026521905638      0.57263240076983
  C   -2.31595562815392     -0.35818962721126      0.47345274584796
  C   -2.60283860430673      0.77828057830492     -0.37523499230869
  C   -3.95069294873871      1.05965472130902     -0.67127274391917
  N   -5.08117228519798      1.24407229103517     -0.87763666629296
  C   -1.61864857267633      1.68045344096608     -0.72329578043593
  C   -0.25065378694565      1.66207102628726     -0.46196382118302
  H   0.25162381697475      2.59347070721022     -0.68464430665373
  H   -1.96937680978280      2.56877924406979     -1.23307902296813
  N   -3.31314433527989     -0.85105994688136      1.23249407855736
  H   -4.24950117618926     -0.49886905960427      1.14730565352436
  H   -3.17222089526095     -1.73861582776897      1.68042495218633
  H   4.15838090861561     -1.48534938825336     -0.65054095824848
  H   2.43200284743442     -2.96609657490907     -0.98506823994748
