28
Coordinates from ORCA-job ./opt_b97-3c_parallel
  N   -4.38035279694436     -0.68798118534854      1.58357082973344
  C   -3.40879054018368     -0.32094582483083      1.06200126037829
  C   -2.21656143447749      0.10515681481749      0.42287194401029
  C   -2.07252822976082      1.45455163927409      0.19862804774862
  N   -1.15956281886371      2.07647491759262     -0.57958001903757
  C   0.03089010068661      1.60940357046673     -0.79812440566857
  N   0.74744727810869      2.10015657584069     -1.83821357391770
  H   0.36343576304443      2.89769293777149     -2.31791722679880
  H   1.74971789875948      2.04949557544603     -1.77618728624050
  C   0.68813251600540      0.52520828151799     -0.01610229954360
  C   1.79840594688394      0.77690247320169      0.73189503815291
  N   2.26482683000002      2.09403309487868      0.85369719735635
  H   1.53809238676268      2.78613640409544      0.95404653486705
  H   2.96322424976062      2.20881263330095      1.56931358484762
  C   2.60609808701782     -0.23683479064052      1.34549913722241
  C   2.73156839138538     -1.52106152595082      0.92333428772493
  C   2.06123781502976     -2.19531965833340     -0.12784981839130
  C   0.85666110100968     -1.87035984412610     -0.68490492013343
  N   0.29324823338788     -2.64752021012358     -1.66502173133398
  H   -0.44727259844275     -2.23110965734996     -2.20105896293688
  H   0.90093850745119     -3.25145045688657     -2.19213996788761
  C   0.02848858507853     -0.76115521137663     -0.18665569081382
  C   -1.30504918426132     -0.92387449298558     -0.00066121597231
  H   -1.72290147106950     -1.91560696502584     -0.11751980419711
  H   2.52778227498954     -3.11138652502472     -0.47412906884371
  H   3.49310974779168     -2.10860855432919      1.42456555672859
  H   3.26788207235921      0.09020330686280      2.13960553581177
  H   -2.85319573880888      2.10642197196565      0.57196973323425
