24
Coordinates from ORCA-job ./opt_b97-3c_parallel
  N   -3.79402332058266     -0.30716706125458      1.17344432472157
  C   -2.71567534347925     -0.58350811947576      0.84480069565717
  C   -1.38447956420247     -0.96685188466958      0.54015841054800
  C   -1.03897361566597     -2.29249997792161      0.94663208959565
  N   -0.06558096489848     -3.05298087042339      0.54301057499763
  C   0.91926857662606     -2.69450689810729     -0.30008808089221
  C   1.45609358237686     -1.45463493134335     -0.53063471529817
  C   2.63120698792918     -1.35399452899140     -1.31278932184682
  N   3.58790964614115     -1.27689929141433     -1.96591967555263
  C   0.93546616568488     -0.20051663831874      0.01238338395352
  N   1.79124762774750      0.71050998192607      0.33040511360776
  C   1.54413003537943      2.00728479382591      0.63762083223184
  N   0.72775773014292      2.84747010216601      0.01043807236010
  C   -0.33492144824495      2.41873112517479     -0.65495402092287
  C   -0.97874073946585      1.18163946216768     -0.63994137588541
  C   -2.17026693079474      1.09397104618021     -1.39894936284309
  N   -3.11866658964286      1.03293045056136     -2.06682687624757
  C   -0.51568566338071     -0.01738145272040      0.00879727849687
  H   -0.82600935591677      3.18672015251666     -1.24187244732880
  N   2.32431629377200      2.51558125104623      1.59767356457950
  H   2.27825905687797      3.50148897544339      1.78384853547086
  H   3.09498573469536      1.97959467447550      1.95316765182281
  H   1.40781801333832     -3.53270202229114     -0.78370607051333
  H   -1.72894384033686     -2.75937026115214      1.64253749788834
