30
Coordinates from ORCA-job ./opt_b97-3c_parallel
  N   -1.22235481720842     -3.38002271415616      1.37379849585744
  C   -1.39088315220708     -2.30262164338087      0.97416137222958
  C   -1.63615511987626     -0.96402225855410      0.57183804522869
  C   -0.62187435537638     -0.27902969712584     -0.08614705625651
  C   -0.70169364872764      1.17660707512623     -0.25216042690952
  N   -1.82641788252773      1.72165283076877     -0.78831841209174
  C   -3.06106213142807      1.53117510250988     -0.43855111409556
  N   -4.01143339691729      2.24930946670176     -1.10980722333855
  H   -4.94107233433265      1.87301201713546     -1.16177867256200
  H   -3.68973236702326      2.72326593044177     -1.93725168408525
  C   -3.53262088628768      0.67904030313564      0.61974516647819
  C   -2.89003920157243     -0.44038268394175      1.01938585534867
  H   -3.40663342906109     -1.06662253606281      1.73503973086338
  H   -4.51772788166426      0.87860249034937      1.02074270259899
  C   0.34409408931067      2.02117961591204     -0.00812798196547
  C   1.67299577388293      1.72650066821769      0.37958426946115
  C   2.34762607370907      0.50675507774874      0.18699996278061
  C   3.69685817368507      0.46888188562526      0.58059044367544
  N   4.81584150544888      0.46769446487505      0.90673253072944
  C   1.84958790613136     -0.64235901278694     -0.51077062706759
  C   0.49136030087990     -0.98183428709623     -0.65760322885855
  C   0.21902399596531     -2.17985113446146     -1.34560868336763
  N   0.06373478352010     -3.15150290738797     -1.96834744590539
  N   2.77119875535682     -1.49871257151857     -0.99632720041047
  H   3.74860931150217     -1.34989227072471     -0.82086331095760
  H   2.49292058230902     -2.40957091708270     -1.31914055209888
  N   2.37340351737438      2.77074239452362      0.88366822536501
  H   1.88525802991849      3.58787437942206      1.19717443408848
  H   3.31876781650900      2.65141408317260      1.20319565705645
  H   0.10886550710768      3.07217963581315     -0.12034815139097
