25
Coordinates from ORCA-job ./opt_b97-3c_parallel
  N   -3.74920110931666     -0.89714846020329      0.90279256865625
  C   -2.67369913274584     -0.26368964965321      0.32233293372334
  C   -1.57033521891192     -1.08515188555687      0.00352200299583
  C   -0.26011146846466     -0.76628939020713     -0.31689666439057
  C   0.62363770559416     -1.84527530902976     -0.62376731199171
  C   1.97781133257919     -1.94321242269484     -0.43767152442536
  C   2.90186242033283     -1.02357514546256      0.05704272622259
  C   2.66695060642557      0.32065259699293      0.30406516900605
  C   1.47678858735438      1.02736146922231      0.01533136047391
  C   0.22022175560004      0.61033217713796     -0.36693616076563
  N   -0.57080134524577      1.60127975761710     -0.88897294321957
  C   -1.83510450464648      1.81965336228743     -0.66604588624300
  C   -2.77862034938437      1.09979469770129      0.07031345658080
  H   -3.73321143556252      1.57959770238506      0.24891757383825
  H   -2.21499757203528      2.71409614506588     -1.15980673645192
  H   1.56660472583331      2.10859206837195      0.01906608751516
  N   3.69379843120100      1.07099641792984      0.83538863660481
  H   4.62512058425340      0.70818015167674      0.73036825724538
  H   3.63593996407189      2.06799150469674      0.72627879010876
  H   3.90317627985345     -1.39226467721027      0.24524953835379
  H   2.39386702757236     -2.91810433726124     -0.66923410535336
  H   0.13085235330026     -2.75430254002097     -0.94902104274390
  H   -1.75275246444356     -2.14890859786457      0.11499583784568
  H   -4.63565616336619     -0.42603863163576      0.85876974310916
  H   -3.81391014734831     -1.89323561528446      0.78863427810402
