20
Coordinates from ORCA-job ./opt_b97-3c_parallel
  N   -1.64740206042054     -3.17335076212636     -0.22808246276913
  C   -1.42129180589404     -2.03621692202161     -0.16851055153444
  C   -1.19827009641351     -0.63618746695792     -0.12921904681077
  C   -2.28961485571438      0.18418063422890     -0.56727501346105
  N   -2.54640811235743      1.43381573366925     -0.33913574614706
  C   -1.72801390592418      2.28067899179846      0.34374876675883
  C   -0.38572252742362      2.23956676326192      0.53741436381785
  C   0.50889040723227      1.17686825033144      0.16883242289782
  C   1.79106304833415      1.43843782826963     -0.25924135011408
  C   2.76462288347651      0.50178934681585     -0.69416654704204
  N   2.93683730990893     -0.75295908767197     -0.37177719623113
  C   2.14411147429126     -1.28447142913825      0.60296544729592
  N   0.90255037253003     -1.08747368760938      0.86336684037966
  C   0.05532497172143     -0.20094871165434      0.27578620281156
  H   2.65286067572445     -2.00068303791564      1.24185903747019
  H   3.51495761717733      0.89967450333082     -1.37408287081946
  H   2.03574018284096      2.47906519354227     -0.43471280500598
  H   0.07413433003375      3.12525768849325      0.96069422514985
  H   -2.24254544103788      3.16975060009075      0.69300643218143
  H   -3.05652568758461     -0.34535392003756     -1.12585978892813
