22
Coordinates from ORCA-job ./opt_b97-3c_parallel
  N   -3.44261727664203     -0.56740863388388      1.41293777661626
  C   -2.56353359803864     -0.33772230919299      0.41203839374885
  N   -3.02187976880936      0.45978927420802     -0.57464341469207
  C   -2.18426572163376      1.09440268673608     -1.37515831730302
  N   -0.90148092745353      1.38130988878522     -1.24262127588914
  C   -0.05634683319156      0.76577128556423     -0.42148235690587
  N   0.97478846164414      1.40201252445109      0.08104760807390
  C   2.08604858361198      0.78869651034432      0.52199471819279
  N   2.64744755153531     -0.34528159691508      0.10537825047059
  C   1.92797036625345     -1.29676448692215     -0.50137551213477
  N   0.62337739484491     -1.57333417489901     -0.39765779079461
  C   -0.29252770613152     -0.67083564828892     -0.10722560578165
  N   -1.42329430303955     -1.02472997054107      0.47733988321361
  N   2.64445639945894     -2.18240002291725     -1.23096215541857
  H   3.64356613629154     -2.15810644118054     -1.14118860797663
  H   2.20670638941651     -3.05403288174120     -1.46653477698887
  N   2.79445368662878      1.49250054095265      1.43516892413834
  H   3.73866080866869      1.20182103940688      1.61217181313312
  H   2.56645982677610      2.46294473341417      1.55080108601274
  H   -2.65064591558619      1.53832708962154     -2.24989520596076
  H   -3.27286356809764     -1.34861450996226      2.01963471768165
  H   -4.38962527050553     -0.26606470314063      1.27258716566289
