25
Coordinates from ORCA-job ./opt_b97-3c_parallel
  N   3.64421685955238      0.30724125139465     -1.14651095633766
  C   2.46171283072902      0.42453827700159     -0.47166723425110
  N   1.74168775834783      1.48801918680852     -0.71139176427409
  C   0.46942492029752      1.62750526133154     -0.25367517184520
  C   -0.43796402728433      0.65925847180164      0.02681888687610
  C   -1.80623392921567      0.98630681285908      0.49492212274841
  N   -2.91304817521004      0.55336575131547     -0.02020814546978
  C   -3.00095600000188     -0.41955054044291     -0.96781282809384
  C   -2.17734684857554     -1.47683048317983     -1.20131825458068
  C   -0.92125579569569     -1.71407766064795     -0.57146804807876
  C   -0.13274819674013     -0.76556566058696     -0.01153734287168
  C   1.12278249038946     -1.10647623335114      0.69140063122226
  N   2.27885698394147     -0.57487159996743      0.45465110548257
  N   1.03757381094975     -2.07029465709576      1.63996813206563
  H   1.83189508699660     -2.21375213542853      2.24063983339822
  H   0.13235748039276     -2.32901958698792      1.98537689635354
  H   -0.55278564915010     -2.73470608290179     -0.57467919882904
  H   -2.53923609141212     -2.23497337880142     -1.88462920987915
  H   -3.93378772140567     -0.38554253093178     -1.52144550592803
  N   -1.88560921366940      1.79323945954834      1.58494770965172
  H   -1.08056190693839      2.31358079925457      1.87584498842395
  H   -2.79378080400837      2.13601294497118      1.84724686684874
  H   0.14001796819792      2.66216093171392     -0.20056244525472
  H   3.96599599772558      1.14304818956532     -1.60284216766355
  H   4.34487942018838     -0.27122395703940     -0.71900813091368
