28
Coordinates from ORCA-job ./opt_b97-3c_parallel
  N   1.62046766219936      2.60032164531191     -1.22837030426422
  C   1.65882983103877      1.45735971537464     -0.46568959905027
  C   2.85646068220691      0.92029377218210     -0.07887428121744
  C   3.05848663718366     -0.17858513600981      0.79458466042191
  C   2.22269511132185     -1.20000857225449      1.11293466427667
  C   0.94091679482649     -1.45681658982560      0.51731283914605
  C   0.15861250203103     -0.50354535551764     -0.05448025351076
  C   -1.03730555513407     -0.85884756346104     -0.85641739375327
  N   -2.25012404407241     -0.51045914733817     -0.56607616180767
  C   -2.50259810630913      0.36133522847993      0.46992383002271
  N   -1.88335216521019      1.45948730006415      0.79851637578572
  C   -0.64554490279559      1.78657335534593      0.33629330575069
  C   0.36575229478569      0.94432013651574     -0.01007933898233
  H   -0.44474569681406      2.85278288561792      0.34612453450581
  N   -3.65062295722692      0.05024872586294      1.15751257684036
  H   -4.31507822438698     -0.50549051857276      0.64716273313421
  H   -4.04034945549666      0.81736090946243      1.67903366731769
  N   -0.80752851619115     -1.54662039888296     -2.00502493611721
  H   -1.61658005459204     -1.90609096445651     -2.48474329698276
  H   0.01892093081235     -2.11847242232417     -2.03195068442952
  N   0.55579233050004     -2.80852775257207      0.44621709140144
  H   -0.42791403026605     -2.96194744808892      0.60904228980391
  H   1.10400321667588     -3.40716419244016      1.04173986306671
  H   2.60692209000077     -1.96624554287843      1.77752430356071
  H   4.04883512695964     -0.22872461020161      1.23597453431031
  H   3.75408870157546      1.43783107312759     -0.40158047166627
  H   0.77089892106150      2.76256470567959     -1.74001567049705
  H   2.45810789921669      2.85491689709980     -1.72440940606515
