26
Coordinates from ORCA-job ./opt_b97-3c_parallel
  N   -3.94073781193059     -2.06511731568311     -1.74959546787415
  C   -3.30317957064586     -1.30223791888980     -1.15074489746651
  C   -2.50186972018800     -0.38386120062199     -0.41680587178544
  C   -1.13677414764423     -0.79077657349329     -0.18402021260248
  C   -0.08236212849794      0.00183910079311      0.11444304787632
  C   1.20002736160793     -0.63086690467388      0.47910028285248
  N   1.11760489775976     -1.64996503708836      1.36692482975205
  H   1.95356189726761     -2.04288578345557      1.76714923845880
  H   0.25718101762879     -1.79845560135579      1.85952553154324
  C   2.40323739043010     -0.28298494311666     -0.11143031382782
  C   3.51645870325493     -1.08807970339214      0.22085272052737
  N   4.39596386891960     -1.78006102890658      0.53866325457389
  C   2.63509957945211      0.79867729478683     -1.02695661466973
  C   1.91208468894851      1.93420869615268     -1.16198194251620
  C   0.75334670017774      2.29011166656156     -0.41439485843701
  C   -0.13213569279322      1.46494985990449      0.19127397564774
  C   -1.20443414421085      2.01495718884187      1.02549945632270
  C   -2.51088424198959      1.69886056461073      0.94852508703212
  C   -3.11313524690559      0.71993372333928      0.10020656098213
  H   -4.17574683908035      0.82196454316585     -0.07733113096093
  H   -3.19648065798658      2.26718390635122      1.56632016727758
  H   -0.91307436332199      2.78065265438213      1.73691939351902
  H   0.54786607159904      3.35290415275951     -0.33456497962479
  H   2.30229991620727      2.68828110016934     -1.83321487618711
  H   3.55226941377572      0.72125936444347     -1.59623385693744
  H   -0.94935199613585     -1.85160215348234     -0.29102889087756
