31
Coordinates from ORCA-job ./opt_b97-3c_parallel
  N   -2.39004340203645     -3.54848704931770     -1.58199624211825
  C   -1.91253700125579     -2.60391159347664     -1.09392114999063
  C   -1.38921267845134     -1.44262694621500     -0.49604964072653
  C   -2.25061063617246     -0.36019493022053     -0.34916091621536
  N   -3.52321300662380     -0.45508971945094     -0.80224388241496
  H   -3.88266668206724     -1.34828293728321     -1.09214116794569
  H   -4.19381192805235      0.25779715901957     -0.57999417070303
  C   -1.91172318453237      0.88850953556146      0.31422352139782
  C   -2.98863598605022      1.64138405106860      0.81451735008610
  N   -3.86794321644372      2.29157442225386      1.22097746579099
  C   -0.65790361877632      1.51212296971878      0.31208350959490
  N   -0.58134903519104      2.82148373304172      0.64754071088416
  H   0.30426677981781      3.19203494068278      0.93797733461343
  H   -1.40549783036051      3.32381647015282      0.93300892148087
  C   0.57871927609928      0.87921779782710     -0.07786880544152
  C   1.53668164748209      1.60651604520221     -0.74567750975358
  C   2.83221795082649      1.21501805067253     -1.09653571618505
  C   3.56262507420329      0.18998450909007     -0.51683625579660
  N   3.25835085113074     -0.51023719327013      0.60563376156811
  C   2.05787268508120     -0.79121925358917      1.00835312700425
  N   1.93443459550872     -1.43459160917068      2.19065446820482
  H   2.75140150890845     -1.55765488688549      2.76385070453540
  H   1.02919571223881     -1.54723178845753      2.60495118134500
  C   0.79210883330143     -0.52401379967207      0.28873928122894
  C   -0.07302640764511     -1.53222833491895      0.07393109389628
  H   0.24762115399137     -2.53415332577732      0.33648018552415
  N   4.82721411193002     -0.07687101350436     -0.97308818171196
  H   5.24456877397789     -0.92205810382251     -0.62533892227604
  H   5.04319794211212      0.15678595588136     -1.92503937857901
  H   3.34431133069888      1.81910929950900     -1.83492148535651
  H   1.23196047785028      2.58167974885150     -1.10963263674074
