27
Coordinates from ORCA-job ./opt_b97-3c_parallel
  N   -5.07514703918802     -0.51013394780727     -0.17356043190184
  C   -3.92092175944858     -0.36332832930470     -0.13146562179174
  C   -2.51507139122457     -0.27422493493197     -0.06465951906580
  C   -1.93789998342197      0.96511285402940     -0.24863651537675
  C   -0.61503511114808      1.40208396260031     -0.17996809611951
  C   -0.49555848238750      2.80097557098750     -0.40136822592123
  N   -0.42870711267897      3.94507319573325     -0.59553404581203
  C   0.60257878111460      0.69215002828186      0.09235438426356
  C   1.71241009690030      1.47820444734141      0.41214738770734
  C   3.07159005025542      1.19838478131937      0.54671776060372
  N   3.80508451590429      0.13988365422052      0.29234812585203
  C   3.24967742015726     -1.02394257046398     -0.10610635720176
  N   4.18952382231704     -1.94913625099790     -0.43043513971292
  H   5.13997901954489     -1.62862873000977     -0.47720709305044
  H   3.94749443749160     -2.79015811617645     -0.91921524760484
  C   1.91160465082528     -1.42534340511050     -0.14646268150847
  C   0.68487119826258     -0.76188886631545      0.04599078760164
  C   -0.41423615156028     -1.63474304504683      0.18438274794934
  C   -1.79333315356242     -1.48780366520127      0.18307864793076
  N   -2.53955009037775     -2.59379087254521      0.41368333654738
  H   -2.10654047280861     -3.49357215038514      0.49750460494005
  H   -3.54043681359140     -2.56700236888670      0.32942653799957
  H   -0.10949991163457     -2.66669583300317      0.31496537157198
  H   1.79739091085013     -2.48402209883437     -0.34786675904936
  H   3.65943447854389      2.04790629497037      0.88489830937320
  H   1.49346717908900      2.52121681272588      0.59161453044124
  H   -2.64647803952692      1.75507618030865     -0.45906971116265
