30
Coordinates from ORCA-job ./opt_b97-3c_parallel
  N   -5.28281325402759     -0.23756665076471     -0.20194162301025
  C   -4.12533723918529     -0.11694529469367     -0.12606641429902
  C   -2.73249889374796      0.03539922278597     -0.03409643129525
  C   -2.00123027937523     -1.03721247902572      0.53501056601174
  C   -0.61291692058727     -1.19863742996333      0.55362367458491
  C   0.44103218916123     -0.38131699287841      0.15932703828384
  C   0.30241946586961      1.07578870226007      0.06262374713848
  N   1.28138708372573      1.92042993362863      0.40535591798334
  C   2.58357011524985      1.71261846730558      0.49027129504030
  N   3.37479174438262      0.80398691221491     -0.09602049405456
  C   2.94521799048965     -0.39668272535822     -0.44044147043739
  C   1.67807237946721     -1.01113119892990     -0.15484818212655
  C   1.65607738863391     -2.40990893516531     -0.30638778005731
  N   1.68364325778460     -3.56663719561729     -0.45111663885920
  N   3.86133987719804     -1.14096728619911     -1.10278306518241
  H   3.71384137437174     -2.12078808174842     -1.26563026837389
  H   4.80301455251873     -0.79365721817262     -1.11149088084770
  N   3.25844992699694      2.63631025962217      1.22280006866955
  H   4.25660989788262      2.66428762510431      1.12493960118881
  H   2.77747980190545      3.48546856585834      1.45566279325704
  C   -0.86888474253401      1.69660745469743     -0.35829431009798
  C   -2.18788428833725      1.25903897880527     -0.49720703937558
  N   -3.04921176842971      2.13411670217999     -1.08750237960196
  H   -2.74642977907603      3.07693020658649     -1.24395900426209
  H   -4.04142354470505      1.99613581990583     -1.00557908770299
  H   -0.71781190678903      2.75183687600161     -0.55142338795900
  H   -0.30941271591288     -2.19352558961031      0.85423683877328
  N   -2.72419135866818     -2.06075796895409      1.07387200533859
  H   -2.26041027112069     -2.93514039929489      1.23917639350151
  H   -3.70953758754098     -2.12385189667626      0.88397745934366
