31
Coordinates from ORCA-job ./opt_b97-3c_parallel
  N   -4.18058267805904     -2.39902227753674     -0.85880381814591
  C   -3.28906751613757     -1.72721116077283     -0.52793839243730
  C   -2.15146221275297     -0.98086501807643     -0.15223587906593
  C   -2.37988282688817      0.27187833747966      0.47682739828552
  C   -1.53113947179389      1.32697341707287      0.66522218037256
  C   -2.03341165204679      2.46189905901709      1.34408512561859
  N   -2.39957658357005      3.42791598594701      1.87946080620921
  C   -0.20339355359264      1.45417648890659      0.06503902293232
  N   0.17535265657287      2.74176572371150     -0.31657902239324
  H   1.16171309027539      2.92794038730047     -0.22721097342693
  H   -0.36674583669013      3.47771972686308      0.10823925864957
  C   0.56982001280826      0.38520607710340     -0.23009363511717
  C   1.79849635915856      0.54539619720458     -1.05077677462933
  N   3.00610625183192      0.32846376861851     -0.63747238187845
  C   3.29523037333186     -0.28092047017506      0.54920475963491
  N   4.49679181551751      0.13139048657544      1.07092442636790
  H   4.93177709445231     -0.46172734908591      1.75582736745954
  H   5.12967716616518      0.54127529444449      0.40530184474419
  C   2.57947281505883     -1.29521042388417      1.15810928176712
  C   1.29150980703504     -1.73086455272142      0.80865663650096
  C   0.32988371034175     -1.00712680797158      0.15116517137659
  C   -0.90947967597708     -1.62852935916409     -0.25898306785649
  N   -0.86065218211079     -2.90983049167722     -0.66618857860689
  H   0.02550571279641     -3.32521219935022     -0.88283028028512
  H   -1.69534238181830     -3.40011506450986     -0.94367731506146
  H   1.01835463598512     -2.72379453125244      1.15043727544541
  H   3.08864065547089     -1.85079390787038      1.93651273303821
  N   1.60543072958455      0.90624743656657     -2.34185205305405
  H   2.42281828530456      1.12492887741710     -2.88715299733196
  H   0.76384173329381      1.40890112600489     -2.56447152710746
  H   -3.39281635124736      0.41748180981232      0.83085853199784
