29
Coordinates from ORCA-job ./opt_b97-3c_parallel
  N   -3.06273962486485     -3.49664308570871      1.33609595751566
  C   -2.51752289819669     -2.56364840610293      0.90961829731041
  C   -1.82425673230056     -1.44710889514094      0.37292653169530
  C   -0.62168039697152     -1.74162111974732     -0.36483975026139
  C   0.42446615047198     -0.91113579820958     -0.56071942120663
  C   1.54218238342250     -1.34495543119503     -1.39627112066898
  C   2.83572042041478     -1.18033980525821     -1.09513412443073
  C   3.32150354254727     -0.60647196104230      0.15365402894300
  N   2.76481824430094      0.30552621005479      0.88876519686763
  C   1.60122970725335      0.96311648387044      0.58542271802842
  N   1.62186924644496      2.27959559393343      1.05304976480567
  H   2.38046301558661      2.41426344503515      1.70245408195124
  H   0.74807506954511      2.60965619121648      1.43452431713537
  C   0.50164580354691      0.46094001518239     -0.05386416932841
  C   -0.63603803819447      1.33248811499313     -0.38644409324585
  C   -1.94875893198865      1.02079046261784     -0.04579842685562
  C   -2.91708699486453      2.02808340202745     -0.25637748914756
  N   -3.65810535293788      2.90537328213851     -0.44591944201126
  C   -2.40188611687486     -0.21625739166473      0.50281750574289
  H   -3.36758559795377     -0.18018670113813      0.98920251131741
  N   -0.34845325232336      2.46875326436375     -1.05320448328019
  H   -1.07607384684036      3.13906336122172     -1.24423886994331
  H   0.59638693360293      2.81202463435222     -1.03065640259366
  N   4.55209972076213     -1.04810787159749      0.54576848453837
  H   4.85939496459506     -1.95397255255179      0.23985935485859
  H   4.83829938912943     -0.77612128924250      1.47134455340118
  H   3.58654102627181     -1.55979124523985     -1.77772743444728
  H   1.30115085044230     -1.86103133750316     -2.32003926983520
  H   -0.55924906802020     -2.73997530056331     -0.78181446825869
