31
Coordinates from ORCA-job ./opt_b97-3c_parallel
  N   -4.01210482395678      0.21562752589698     -0.72953229744017
  C   -2.67119450664841      0.03012767804521     -0.37937705787026
  C   -2.18561631030609      0.98663230963396      0.57428726882045
  C   -0.88725147410424      1.32333995209780      0.79466782432961
  C   0.22362495131752      0.74473348628546      0.02220620640770
  C   1.18620757730807      1.50638881704255     -0.57877880415911
  C   2.33517435344825      0.92651106697375     -1.22279793563950
  C   2.95472714395024     -0.23553696866953     -0.89745468443721
  N   2.71350339806386     -1.09070266706967      0.13788344455200
  C   1.52439163543958     -1.25550419106591      0.62777117716717
  N   1.38427235327727     -1.93288051326680      1.80382177182707
  H   2.20399666514366     -2.42801154139352      2.11737246172361
  H   0.51079127484325     -2.41783217851782      1.92794680905265
  C   0.28410717964020     -0.71286062437922      0.02378768724789
  C   -0.71638778419722     -1.52598316912565     -0.40569513866411
  C   -1.99972512535600     -1.06494945292303     -0.84369206423817
  H   -2.53466296232630     -1.71646177015865     -1.52992745062269
  N   -0.53555964295763     -2.92658294580899     -0.37439509086663
  H   0.36675914614708     -3.22228032953426     -0.71716134808532
  H   -1.26776031230012     -3.42671869707404     -0.85127964015684
  H   3.84317962244926     -0.49385046160853     -1.46521425702114
  H   2.81378109849453      1.52621705538634     -1.99073184823672
  N   1.14694393722277      2.90490378692808     -0.55729279119488
  H   0.22276804243807      3.30138776280219     -0.49032532175306
  H   1.68166251717581      3.33362050173427     -1.29461178482935
  N   -0.55417699793624      2.28043988578025      1.73237125822755
  H   0.41312271800417      2.30403778205451      2.00368034792199
  H   -1.19678928901231      2.42291645770945      2.49323055029045
  H   -2.94948120916617      1.48534824762054      1.16315084654924
  H   -4.27149068787510      1.17979811870994     -0.86492434260767
  H   -4.32126868932283     -0.35361331680609     -1.50072610029417
