22
Coordinates from ORCA-job ./opt_b97-3c_parallel
  N   -4.80231000221709     -0.88513018765759      0.75781897334093
  C   -3.74718819394745     -0.49194460606649      0.47227756615234
  C   -2.45296224431526     -0.04190302864894      0.12625575720884
  C   -1.70562677191772     -0.81137205136322     -0.83021121296861
  N   -0.44310974462739     -0.76002561433032     -1.03770370758907
  C   0.51552265213702     -0.08733567605452     -0.34723771628890
  C   0.36304653178735      1.34909286709853     -0.21397501013550
  C   1.48600414377143      2.19391904760911     -0.50525584299781
  C   2.79254264748385      1.93554894451432     -0.23733086647727
  N   3.36248724703841      0.91880018068654      0.46345556408836
  C   2.82300987103955     -0.24545529033249      0.65074195217992
  C   1.60507987794402     -0.79789858947539      0.13624673219262
  C   1.50690566871336     -2.21257414248950      0.14932007169797
  N   1.45971905543653     -3.37174707403476      0.19040399271717
  H   3.42373583099300     -0.93965556272133      1.23161844312186
  H   3.50812972526328      2.69665282841888     -0.52963694371684
  H   1.25857752446352      3.16678036502818     -0.92623169219386
  C   -0.85286606388763      1.88922684480962      0.15938401824672
  C   -2.05206830914560      1.23404717274831      0.47300522259218
  H   -2.78783856925544      1.83472330039733      0.99267653647452
  H   -0.84913242254537      2.95709578275493      0.33808696582778
  H   -2.27569567771361     -1.44677494689086     -1.50235133377471
