30
Coordinates from ORCA-job ./opt_b97-3c_parallel
  N   4.07428757272798      1.62959393531964      1.41453515138038
  C   3.14231592566786      1.11872929576011      0.93608923002023
  C   2.05724726407154      0.44987874134719      0.33653965746237
  C   0.92445481955746      1.25164770850759     -0.03104062702520
  C   -0.34766988552191      0.83726254802325     -0.22173620639687
  C   -1.37480274628248      1.77407850362562     -0.68973903572378
  N   -1.00030163562482      2.65514527935263     -1.65442853728824
  H   -0.16523003975559      2.45800768116726     -2.17497949105433
  H   -1.70003285348766      3.20219438326056     -2.12523063492584
  C   -2.61794419130486      1.84086594850764     -0.11261600546487
  C   -3.08523701323890      1.04683898169824      0.95956597411074
  N   -2.74604126771918     -0.13952849949620      1.37682840430165
  C   -1.84041121045537     -0.93230927267524      0.71656880002750
  N   -2.12594409172902     -2.29610722777376      0.89254744791704
  H   -2.79915275225166     -2.40600016246159      1.63565219853447
  H   -1.30895566531182     -2.86573116646130      1.05984316704128
  C   -0.78736715355774     -0.54836057752574     -0.06171720154456
  C   -0.01818948288197     -1.54738161797347     -0.82947084123255
  N   -0.75530510371095     -2.30163130043555     -1.70489829522667
  H   -1.71060356505079     -2.46777410678689     -1.42892914669646
  H   -0.30613226310264     -3.10167289695213     -2.12011695155939
  C   1.33076976591744     -1.69976174722356     -0.72977465905022
  C   2.24482688524047     -0.89550356825483      0.02045887787850
  N   3.41112211271727     -1.51287849907214      0.37965924087481
  H   4.19622975683296     -0.94515900836934      0.65230399641610
  H   3.63811937948995     -2.38960211405415     -0.05075738908002
  H   1.78058914522803     -2.52392808443225     -1.27689001973351
  H   -3.91703012196591      1.48079551283569      1.51331790988801
  H   -3.27198769559689      2.65095085823626     -0.41694378746804
  H   1.12611760219980      2.31272443060680     -0.11992505728235
