23
Coordinates from ORCA-job ./opt_b97-3c_parallel
  N   4.04851349279738      1.65055687268057     -1.06675807048164
  C   3.13164287968951      1.02616208323183     -0.72116307832392
  C   2.00214861741640      0.28452381588406     -0.29323739973806
  C   2.04084351851249     -1.08171614357536     -0.45540822139544
  N   1.21179821373044     -2.01126382944501      0.05502348787295
  C   -0.03329121308267     -1.83753235665500      0.37044435157172
  N   -0.66211400812638     -2.79312089790614      1.08693873962201
  H   -0.11399872867715     -3.52650172308382      1.50293818032860
  H   -1.59382219571625     -2.63909348567523      1.42195827600326
  C   -0.85644874300664     -0.67019156505050     -0.03675082370213
  C   -2.00512967117573     -0.81777939864434     -0.74615166021697
  C   -2.86882412460547      0.24183333353803     -1.14383337043426
  C   -2.98238196440344      1.45234818539971     -0.53516365180543
  N   -2.47832122167687      1.79220778844348      0.69100880929019
  C   -1.36882169798262      1.38357678290297      1.16959870597087
  C   -0.34466740057461      0.60029657204804      0.43646476965243
  C   0.93551483249734      1.01455562378915      0.33567682445898
  H   1.18009549097161      1.99737813663454      0.72113114278369
  H   -1.17094500855814      1.60749979266398      2.21681507217221
  H   -3.67634178513958      2.17901738128858     -0.93884523810334
  H   -3.54562375439981      0.04138746952540     -1.96548805485133
  H   -2.25890683354626     -1.81494278274889     -1.08777538158517
  H   2.90820320115699     -1.49567552504653     -0.95556774688998
