24
Coordinates from ORCA-job ./opt_b97-3c_parallel
  N   -2.70892826128940     -2.14181361983616      0.92392699579724
  C   -1.90825771534759     -1.15237183788652      0.39742671699004
  C   -0.60403966639552     -1.56992979811410     -0.00557552339217
  C   0.49644051610109     -0.79425016620688     -0.24003413835889
  C   1.66839915043419     -1.33759606514488     -0.86316627578802
  C   2.96990461661480     -0.97276756297884     -0.67307808558558
  C   3.48148819720722     -0.01928213992233      0.22950800891976
  C   2.72323883684064      0.87396244252260      0.94168343512774
  N   1.45456461632396      1.23479038382742      0.73177851345719
  C   0.50520744641739      0.65023656410633      0.05355369487938
  N   -0.47189318801776      1.43642163189091     -0.43549133710423
  C   -1.75825275123240      1.21223517805789     -0.34854098837937
  C   -2.42425857712438      0.11756496436650      0.27021114486445
  H   -3.47206656365230      0.25528775214633      0.51262505902553
  N   -2.55324228300754      2.16382933266554     -0.93552166778066
  H   -2.12293295370159      3.06108310094296     -1.07531548620569
  H   -3.53045582519672      2.17733038936502     -0.70976310140156
  H   3.21392268266725      1.44385984009212      1.72525237233048
  H   4.54942388760208     -0.01666259899962      0.40640365606162
  H   3.70467455150104     -1.54663021166665     -1.22704014417368
  H   1.48509566844615     -2.15879836506662     -1.54688245212415
  H   -0.47168568420002     -2.63996639967641     -0.12660583407111
  H   -3.70290194200707     -1.99632690891431      0.89451068346259
  H   -2.43450181838407     -3.09211116657124      0.75045296374912
