25
Coordinates from ORCA-job ./opt_b97-3c_parallel
  N   -4.35076649239061     -0.19155390238259     -2.29726449001192
  C   -3.52170633824886      0.10308501535948     -1.54024567588513
  C   -2.49771061080232      0.43197627862614     -0.61048212402427
  C   -2.53840463911518      1.65901275553975     -0.01937970713488
  C   -1.66636745112525      2.15076727185981      1.00171206610476
  C   -0.40679643799231      1.75428090077982      1.27280295328044
  C   0.35220658994629      0.75251348071502      0.52832464221363
  C   1.64714928655664      0.97296224918410      0.19458918844795
  C   2.52008721179554      0.07507681148868     -0.50550319234838
  C   3.64173778099960      0.64753609654719     -1.15722021694570
  N   4.55483629977198      1.13394205591573     -1.68562188328229
  C   2.39376915609155     -1.29474013327441     -0.54544845395269
  N   1.56378179902630     -2.06828688766254      0.17666110772755
  C   0.42003773624071     -1.70812391126082      0.66392989115402
  N   -0.16651638677304     -2.48088857790727      1.60031069862553
  H   0.35859084580692     -3.23274327054951      2.01223659398902
  H   -1.03515471655202     -2.20865164566039      2.01824943454576
  C   -0.34545114839694     -0.49851383638889      0.24501652077194
  C   -1.57851541841700     -0.63455373022341     -0.27646896615691
  H   -1.93679362465828     -1.63765517200184     -0.47324471374053
  H   3.12146287474983     -1.84753628010907     -1.12663946194844
  H   2.05361068527722      1.95143969724313      0.42074220363381
  H   0.11503840982710      2.25770606077014      2.07959582497539
  H   -2.05771570151142      2.97604637939205      1.58460405314206
  H   -3.35822108000556      2.30830297210022     -0.29812573368058
