27
Coordinates from ORCA-job ./opt_b97-3c_parallel
  N   -4.78252887126577     -0.53600684460899     -0.60949513803437
  C   -3.71781690991187     -0.23193804027515     -0.24776566486782
  C   -2.40387066103076      0.08758833680396      0.14660760958898
  C   -1.37309836129376     -0.71116767461839     -0.34340508005194
  N   -1.64199103690462     -1.73733696307673     -1.17000390669818
  H   -0.88925632939647     -2.24375240706798     -1.59614213835102
  H   -2.58093396323516     -1.91944044508154     -1.48421532440879
  C   0.02118110726267     -0.53349672971412      0.05584420733438
  C   0.78833514613252     -1.62204336664594      0.33957966649185
  N   2.08529830483197     -1.69091550105329      0.71742944601301
  C   2.99837413632050     -0.84094136322691      0.32524955510714
  N   4.28192106075294     -1.12790247303618      0.71632201110850
  H   4.92454609273169     -0.36170874628720      0.81280606835711
  H   4.35094590321665     -1.84120411235633      1.42334302867272
  C   2.86693037625121      0.27683752352444     -0.57151150764091
  C   1.76947489906038      1.07364559890003     -0.68547071897907
  N   1.79085054978658      2.19930467871774     -1.46082553649778
  H   2.53747567877085      2.30795581069949     -2.12586210537225
  H   0.90368680781888      2.57108296410648     -1.75037801907651
  C   0.52272546326337      0.84591166282257      0.06514059447214
  C   -0.10591361748629      1.88410953843620      0.66142110252431
  N   -1.25251374382333      1.88087527392609      1.41314998922025
  C   -2.24589503194812      1.09556542635828      1.17000369677474
  H   -3.12212201935501      1.24631183970266      1.79707468428591
  H   0.37552454514845      2.85577152268202      0.62848365221756
  H   3.75583471807529      0.54809969322989     -1.13114472793654
  H   0.28700120462631     -2.58593421736032      0.36638286554607
