23
Coordinates from ORCA-job ./opt_b97-3c_parallel
  N   -3.66380794129176     -0.77243151100589     -1.10781896102046
  C   -2.61685722736252     -0.23318616080188     -0.40318974556135
  C   -1.50924777728969     -1.08096905526902     -0.17613617898624
  C   -0.24483195319730     -0.77479660460154      0.28329395694064
  C   0.65600540868915     -1.79251049593850      0.69940530183775
  C   2.03066939279677     -1.75011027423708      0.70917922574130
  N   2.89637568755148     -0.86152544881212      0.20969709027099
  C   2.48132480475762      0.30297423209730     -0.29057339469776
  N   1.38418074643413      1.02067565232662     -0.01935194429575
  C   0.21841448354111      0.61296060209446      0.40759670291943
  N   -0.54353286300310      1.52743529493530      1.03275471447335
  C   -1.83110318540368      1.71637729307623      0.89613149302804
  C   -2.75971068091993      1.06352536424812      0.09053538049562
  H   -3.72915180457751      1.53591125478952     -0.01336452766891
  H   -2.22288630234341      2.52979285724928      1.50355096914456
  N   3.35236605470042      0.91208473839549     -1.13651287686492
  H   3.24502553207134      1.89963022536298     -1.27985782011702
  H   4.27950526086952      0.52854399313912     -1.17454157883556
  H   2.51968200865838     -2.62975869791434      1.11921241278926
  H   0.20933426828054     -2.72324950709059      1.02795114418942
  H   -1.66979764081924     -2.12843613805604     -0.40964890755374
  H   -3.70614307617628     -1.77184139839598     -1.19744559703545
  H   -4.56047155896531     -0.32659175199097     -1.02886746229300
