21
Coordinates from ORCA-job ./opt_b97-3c_parallel
  N   4.35776897273655      0.99359949025378      0.90223707983347
  C   3.31338172171364      0.61700934207100      0.56187969374505
  C   2.06008715762631      0.11550136566321      0.12580047789453
  C   2.10793296865997     -1.11413246499378     -0.68024833743555
  N   1.19219574183586     -1.98762556317054     -0.83880045098215
  C   -0.04197387198972     -1.93599447739327     -0.22892974515310
  C   -0.83876940331389     -0.87088589122871      0.02304577215315
  C   -2.16023682561229     -1.13701708119930      0.58171721951771
  C   -3.28123016855256     -0.41892661225860      0.40211955240516
  C   -3.41247478892582      0.72862543733703     -0.47156763627140
  N   -2.52522815078778      1.60279498056877     -0.78054155314873
  C   -1.24253664154996      1.58812878947115     -0.29678836631573
  C   -0.41137465643273      0.53839901163384     -0.05589101333188
  C   0.94672262783118      0.86305494333063      0.32491823819306
  H   1.08912040112781      1.83189317869856      0.79144881323495
  H   -0.81866268015364      2.58388337567927     -0.20950129822994
  H   -4.39401105869043      0.87409623969778     -0.91946751593341
  H   -4.20051853604713     -0.79129898126211      0.83907338564404
  H   -2.24219612521135     -2.04563470815839      1.16973529443329
  H   -0.45167382648092     -2.92242571964667     -0.03873858058342
  H   3.04568984451675     -1.28717441019312     -1.20278679616892
