26
Coordinates from ORCA-job ./opt_b97-3c_parallel
  N   -0.00243114137222      3.72457580099529      1.40648078145355
  C   0.21645269405881      2.66249822362980      0.99000955631218
  C   0.48841260980138      1.35490923513004      0.51933679342642
  C   1.79936870868639      0.92830928637179      0.52745227171928
  C   2.38301397736553     -0.25008460196149      0.04461063353839
  C   3.79415814195144     -0.28493806224274     -0.00608617426828
  N   4.95149953162697     -0.38589979300621     -0.07454066630635
  C   1.71370845825485     -1.44070318240862     -0.34651881761426
  C   0.33403457743537     -1.68637746091170     -0.19825270708115
  C   -0.69843524623303     -0.81843558020279      0.06549095582222
  N   -1.84726312384788     -1.32722717317321      0.56273875922229
  C   -3.07960894011622     -0.98864961257444      0.29208004777756
  C   -3.50441868746570     -0.07625813686666     -0.72746865480906
  C   -2.70758851512885      0.91782791556504     -1.19596174595009
  N   -1.52031486612570      1.33273436392787     -0.71324926859441
  C   -0.61287244431427      0.64842154248196     -0.08763991174008
  H   -3.08692081683245      1.54194402592557     -1.99803806708901
  H   -4.51891901773447     -0.15112354014861     -1.09614062892659
  N   -4.05205805414578     -1.64389232493053      0.98687868410535
  H   -3.74107588775277     -2.20107028172282      1.76463577689492
  H   -4.95007721554720     -1.20671810557308      1.08596301977064
  H   0.04031625609819     -2.72958813236607     -0.21527047784781
  N   2.46525261483077     -2.46933003264079     -0.79748465418783
  H   3.46939994824891     -2.42421376639279     -0.78070109174796
  H   2.04365818665247     -3.35635209477705     -0.99593579939502
  H   2.50842232910551      1.65405162727232      0.90269765681437
