24
Coordinates from ORCA-job ./opt_b97-3c_parallel
  N   -1.14741157719621     -3.23564669031251     -0.24700467719939
  C   -1.06469507904042     -2.08621316111083     -0.08274366889130
  C   -1.06809068234104     -0.68375065920596      0.06783661227969
  C   -2.31207651017887      0.00078377682831     -0.21889671070418
  N   -2.70551792732600      1.18097448780476      0.22324386837134
  C   -1.91977254452383      1.98891232926334      0.94905978325054
  N   -0.63321569801813      2.15808522783306      0.97188190239755
  C   0.28960172468702      1.38450606521150      0.33772875807234
  C   1.35412662842461      1.98977779796374     -0.28551382225320
  C   2.50146589582025      1.38423324157029     -0.83511248762284
  C   3.00985615900293      0.14258779693128     -0.60527306334579
  C   2.43992456723231     -0.78778105936912      0.32358295682193
  N   1.18203427183650     -0.87355994272145      0.67411744509937
  C   0.15809852311492     -0.07520770045298      0.35482999991189
  N   3.27303425113758     -1.69396323058866      0.89134205547033
  H   4.22554624947051     -1.77175225480987      0.59121524624420
  H   2.86281272856254     -2.47428965286791      1.37251320548827
  H   3.96024578365063     -0.11782765882560     -1.05336133908643
  H   3.09911456418956      2.02793953980143     -1.47045048119239
  H   1.27627559185728      3.06571055569204     -0.37771596762016
  H   -2.47618772391509      2.67858567928085      1.57876468711160
  N   -3.21631919271947     -0.66520447631195     -0.96608276451384
  H   -4.14660074548555     -0.28827812618210     -0.99946726084839
  H   -3.08079230664170     -1.63166710362184     -1.20399995444130
