23
Coordinates from ORCA-job ./opt_b97-3c_parallel
  N   -3.29611086955987     -1.59499128214005     -0.89251022242169
  C   -2.42742900177412     -0.73773870155967     -0.28349673944931
  N   -3.00633035347639      0.34147861943828      0.22627849317946
  C   -2.33830214702936      1.37314985263128      0.75314311344409
  C   -1.01862001476539      1.74724871757532      0.69930629970357
  C   0.05722279213858      1.05791910398824      0.08499596450445
  N   1.03642089410762      1.76755162148093     -0.42536731837521
  C   2.21312403329610      1.32822775777094     -0.90504770119186
  C   2.91672883440731      0.20709432511264     -0.59491924551234
  C   2.40479374465089     -0.82182373659970      0.26003364916729
  N   1.15041122321004     -1.09825708926937      0.50081353975607
  C   0.04749249417076     -0.42167883341528      0.09595198486117
  C   -1.07374819281544     -1.15740482026717     -0.20350947435514
  H   -0.89466811825144     -2.22131174901484     -0.31168635390956
  N   3.31432061039208     -1.63746253495920      0.85271634113663
  H   2.98555960113087     -2.39975187770376      1.41589901057622
  H   4.29580990862346     -1.44768387668679      0.81045840068995
  H   3.93277034946807      0.11757320956523     -0.95833649246814
  H   2.68466379094559      2.03386298348958     -1.58363618930311
  H   -0.78395013141785      2.74719505853305      1.04280160197363
  H   -2.99754179611522      2.08725872025123      1.23942063217536
  H   -4.27223742692369     -1.44337012133404     -0.70807837430892
  H   -3.00740949091396     -2.52892719328776     -1.11592974387283
