30
Coordinates from ORCA-job ./opt_b97-3c_parallel
  N   4.79041682022754      0.69099806216487     -1.62840864208929
  C   3.75259944577455      0.41799281558796     -1.18420646112181
  C   2.49537670762082      0.13329932605743     -0.59509870428610
  C   1.93124159456180     -1.07943570346764     -0.87029319267741
  C   0.73059296970200     -1.65012099728346     -0.36969401218221
  C   0.63080927146930     -3.05507927804131     -0.56282131255822
  N   0.58305502848148     -4.19053609907756     -0.79557218938034
  C   -0.36525785987008     -0.97475218730425      0.13924863168731
  C   -1.45499009310821     -1.67956102579813      0.78039185668069
  C   -1.12924885093043     -2.74265341833787      1.65541694645450
  N   -0.87227361567889     -3.58208873687506      2.41615975907881
  C   -2.79441100846620     -1.36814206025887      0.63997108737722
  N   -3.38686230137338     -0.49017038577423     -0.16079311260771
  C   -2.83377546945009      0.58711192312811     -0.67091165101092
  N   -3.55566222080364      1.25303930229165     -1.58359496728485
  H   -3.26650706522670      2.14646768597570     -1.94048775418193
  H   -4.49547108787911      0.94259756477314     -1.75898457874649
  C   -1.55961476889457      1.17667190778088     -0.26621315494973
  C   -1.46015950200792      2.57798687334600     -0.43229230943974
  N   -1.44226058540961      3.71591652100866     -0.66698089601724
  C   -0.44404022830450      0.48027012460016      0.14321399928615
  C   0.66787024492136      1.20987729702598      0.73431716753141
  C   0.35053947817402      2.17174762285370      1.71248462593058
  N   0.16600381411512      2.96437059719083      2.54418293531090
  C   2.00824023016633      1.10039504233919      0.37484319674901
  N   2.91728755947442      1.93251411541403      0.90400630607716
  H   2.63664281142559      2.67675346608402      1.51984073272102
  H   3.88004321986822      1.89862748415685      0.61937165057662
  H   -3.48491020737329     -1.99243066779066      1.19597085447834
  H   2.50864398837190     -1.72926405774432     -1.51315883099677
