29
Coordinates from ORCA-job ./opt_b97-3c_parallel
  N   4.10417709187809      1.63913736955230      1.45551957492683
  C   3.17100864203567      1.12957690666605      0.97807482505460
  C   2.08465100930937      0.46314110833581      0.37965044556067
  C   0.93790143051627      1.25650382021443      0.03747607550079
  C   -0.32097792666444      0.81717931866209     -0.15573335583806
  C   -1.39517972140568      1.72044449721713     -0.62284861522164
  N   -2.51948272729995      1.90660233579331      0.00428289288944
  C   -2.90066526631432      1.16898243330125      1.07134568676523
  N   -2.69794152426098     -0.07651399613708      1.38161573001939
  C   -1.87774992020409     -0.91714221326037      0.67369677736658
  N   -2.27511577905494     -2.25875840147291      0.77641285913610
  H   -2.97326154463630     -2.34909033451293      1.49919308541944
  H   -1.51139788302874     -2.89905692092851      0.93995631984626
  C   -0.76786345833672     -0.56542740794277     -0.04271858272012
  C   0.00758277610538     -1.55319920463753     -0.80965369715320
  C   1.36207543556943     -1.67873190532330     -0.71837800733043
  C   2.27649873715913     -0.87540627941086      0.03306203499417
  N   3.45409866947516     -1.48586010235942      0.36195120699706
  H   4.23627074629930     -0.91782693068228      0.64165599709440
  H   3.68223948245210     -2.35793021847267     -0.07669607387888
  H   1.81752757698339     -2.49587137515028     -1.27086538501383
  N   -0.71544790515699     -2.32537458176645     -1.67922166602735
  H   -0.25957149309167     -3.12023702345413     -2.09554078904819
  H   -1.68172330257820     -2.47798493505916     -1.43559576729966
  H   -3.58223610406832      1.69562764843010      1.73362166266145
  N   -1.16960083766368      2.40221598713308     -1.76216208702819
  H   -1.91635241482026      2.93942129776932     -2.16868391848522
  H   -0.34993278133744      2.21284034102632     -2.30626855123738
  H   1.11908954114016      2.32182478606980     -0.05032275214865
