29
Coordinates from ORCA-job ./opt_b97-3c_parallel
  N   -4.89065613031151     -0.33149652784023      1.00278225503281
  C   -3.77831283601656     -0.15019961798399      0.71235944421964
  C   -2.42575818490858     -0.00167412215385      0.33656662934593
  C   -1.90634265250617      1.27613604002619      0.32240846476331
  C   -0.64267080044201      1.76814198298554     -0.00634816260692
  C   -0.59344777528896      3.18748138203527     -0.02905709276300
  N   -0.57750178211806      4.34961157362796     -0.04556891182140
  C   0.59594060008182      1.07684914819490     -0.18711065935193
  C   1.70305087374126      1.86432336519079     -0.54456426882286
  C   3.06662461058858      1.63065308756186     -0.50276359715700
  C   3.78276625575486      0.55587180813652     -0.02856539592797
  C   3.23245258279459     -0.64674178516241      0.42178224903581
  N   4.07807165649809     -1.57995473159692      0.93721008662918
  H   5.06853836136790     -1.46006690173679      0.83014654639662
  H   3.76491542057509     -2.52697663997339      1.05012539726444
  C   1.87342191260972     -1.01167360331228      0.35156874380208
  C   0.71044113461854     -0.36067537513353     -0.03820290309385
  C   -0.37506327310246     -1.27114270752940     -0.38549043762278
  C   0.04012923225446     -2.51597535584220     -0.89860305085423
  N   0.31632982678769     -3.56600676224195     -1.32406121787630
  C   -1.75660213570891     -1.17523970920258     -0.14963183878730
  N   -2.53094351729705     -2.24874571887617     -0.38130519825050
  H   -3.52409787507000     -2.20526191972438     -0.23418300435295
  H   -2.13586521715525     -3.11488348536110     -0.70394943284062
  H   1.71160695792510     -2.04991832959600      0.61154680027672
  H   4.86136516548704      0.64866590579410     -0.00479010931458
  H   3.66700221145406      2.46030432276083     -0.85669548624565
  H   1.44758169230403      2.85709264729862     -0.88690618503734
  H   -2.61903126921057      2.04452379955905      0.59125965246798
