31
Coordinates from ORCA-job ./opt_b97-3c_parallel
  N   -0.71978014993712     -3.74163091652752     -1.17675056400891
  C   -0.26035236431618     -2.73813501599276     -0.81607507242341
  C   0.34816820123852     -1.50178272720003     -0.46665582608049
  C   1.72489040585668     -1.45233505846544     -0.75367607365485
  C   2.67824869938604     -0.52091887126326     -0.42739416727809
  C   4.01470974071279     -0.81270346545463     -0.78996333078853
  N   5.13003710646928     -1.00786714577045     -1.05362355459527
  C   2.47319495430147      0.68261583327016      0.34389568921334
  N   3.57357712197271      1.24608910418560      0.87745727774581
  H   4.48154263753154      0.84402840594014      0.72794650812560
  H   3.52209772170002      2.12648286877562      1.35924021010505
  C   1.23152461129932      1.29713898108478      0.51910373844728
  C   1.25198055112547      2.50783275897637      1.23813177887538
  N   1.33532293727126      3.50624205697834      1.83254608289140
  C   -0.06440485308036      0.92966290656379     -0.03520226766974
  C   -0.88751560407599      1.94198263690384     -0.42539045943439
  C   -2.26540079296113      1.86591699007152     -0.80610916391951
  N   -3.18437171186008      1.02786243324953     -0.38178049553629
  C   -2.95856917096761     -0.02021637623169      0.41859828050574
  N   -4.04650477404759     -0.42806501297628      1.09306248058040
  H   -4.04954748760061     -1.28607825598195      1.61713113783273
  H   -4.92066065716003      0.01804534155065      0.88293736868001
  C   -1.76537814054639     -0.79398479444667      0.52867090246934
  C   -1.89149616510549     -1.98998922032494      1.26371672641352
  N   -2.08178678400381     -2.91352132228239      1.94631654333976
  C   -0.49061954570112     -0.47123041796031     -0.01150006128521
  N   -2.70998953840537      2.84504037852432     -1.62110173782490
  H   -2.07278100768209      3.45098068433667     -2.10192466764404
  H   -3.67148909357230      2.82828177542102     -1.91081696161115
  H   -0.45266913981494      2.93143773570312     -0.47594993092701
  H   2.10093496267865     -2.32373923045457     -1.27170224054450
