30
Coordinates from ORCA-job ./opt_b97-3c_parallel
  N   -2.31854934303599     -3.98082605634932     -1.74610770123841
  C   -2.02004035968799     -2.98032481089403     -1.23771732151423
  C   -1.62247134405365     -1.77169708166913     -0.60800263210936
  C   -0.25049886845887     -1.70087962611087     -0.17841362022516
  C   0.45362824152269     -0.56966362427271      0.03449720105800
  C   1.80751205996551     -0.64182552581103      0.60477713281299
  N   1.97778891102803     -1.40722082183704      1.68948406407970
  H   2.87886713963833     -1.49976876446303      2.13035658774622
  H   1.19428278707748     -1.87773295044411      2.10237880445513
  C   2.87316986473479      0.00580836537510     -0.00838540338210
  C   4.16621402170721     -0.24291528627894      0.49828148047535
  N   5.20365814510057     -0.48071715706561      0.96772645596509
  C   2.76647917671059      0.80381357968755     -1.19753814492009
  N   1.78742167688159      1.51100866814541     -1.65691264769354
  C   0.59193256492718      1.68882651708836     -1.00035004872689
  N   0.06067513147959      2.95071204169735     -1.23607600576108
  H   0.52253625463627      3.39996545294271     -2.01103421371365
  H   -0.94335520880427      2.99477294942529     -1.31754404922420
  C   -0.04773746192701      0.78165870042360     -0.20368305794210
  C   -1.28893436124914      1.13025918669219      0.50470263832752
  N   -1.24023101490178      2.21197524463212      1.30224726112661
  H   -0.48201532600052      2.86268763117309      1.19190555694308
  H   -2.06888341353381      2.53968658472089      1.77285633714978
  C   -2.45947759830309      0.39072240173664      0.36116499554460
  C   -3.62664977772922      0.92764926312212      0.95186741338939
  N   -4.54269342502915      1.43414155605604      1.45930939827579
  C   -2.58917555840419     -0.83977647963311     -0.34636838857410
  H   -3.60120159031932     -1.10598941487573     -0.62096839000392
  H   3.68051700448505      0.86261606538252     -1.78323423897566
  H   0.24645013034072     -2.65251244179448     -0.03295952224487
