28
Coordinates from ORCA-job ./opt_b97-3c_parallel
  N   4.57914726798153      1.91975259593920     -1.24768701583586
  C   3.65679757112545      1.31774750892013     -0.86977266660559
  C   2.58331321021996      0.55077203150638     -0.36951605897958
  C   1.30923239818876      0.97834410333324     -0.63337604474550
  C   0.06765164939607      0.38376939145512     -0.28425009402005
  C   -1.02198428952919      1.22024686695338     -0.23873748517328
  C   -2.35484343727883      0.93801225127829      0.13492370476825
  C   -3.19525409247031      2.02177147693015      0.45707398311827
  N   -3.93396370776162      2.87777790448811      0.73736519517413
  C   -2.93192995005294     -0.34868531042424      0.17576284919601
  N   -2.44012269474998     -1.46271667359084     -0.39924261057668
  C   -1.18621437323222     -1.76546219899670     -0.57431515703881
  N   -0.94648917884962     -2.88851227441247     -1.28219651130363
  H   -1.72720674713451     -3.37137278878770     -1.69255209978788
  H   -0.02521361557850     -3.08083367155077     -1.62600958162110
  C   0.00188390992975     -1.06695750533763     -0.05078822034820
  C   0.99206280058720     -1.83048711343938      0.47520381544396
  N   2.19849616838047     -1.49911984662934      1.01350532685631
  C   2.91778487825329     -0.48955538068425      0.63382850725957
  N   4.11243681778381     -0.32948273482036      1.23690397774411
  H   4.38947566926487     -1.01044853507295      1.92063275286898
  H   4.75082203763771      0.40088318154795      0.98068353663970
  H   0.78236599028790     -2.89099783940291      0.57640158023436
  N   -4.15609152105371     -0.51438924530494      0.71813225576093
  H   -4.64211584197840     -1.36847556838507      0.51451889645539
  H   -4.69486979635763      0.28187980168402      1.01212551130846
  H   -0.82648981806725      2.26574558048185     -0.44055442161331
  H   1.24337602556365      1.92788864182743     -1.15321565677819
