28
Coordinates from ORCA-job ./opt_b97-3c_parallel
  N   -1.21454578279316     -3.50099783353291      1.00887512998594
  C   -1.18959880739864     -2.36829838171663      0.73240230931870
  C   -1.21446719032553     -1.00113257596507      0.40372819309932
  C   -2.48863190217410     -0.36780704626307      0.47984236934023
  C   -2.81352528948198      0.88100510580397     -0.04208208860287
  C   -1.93375233727818      1.79201837814361     -0.62815674339431
  N   -0.62012271773460      1.90201135512699     -0.45019906118303
  C   0.23316655821503      1.02429752727003      0.02838042450023
  N   1.33423532428233      1.51146146036945      0.58620599646805
  C   2.54159912704960      0.97974953399452      0.63229908381117
  N   3.11108495651866      0.04747524121713     -0.14905028249967
  C   2.39608881701582     -0.92178613268501     -0.70297501467070
  N   3.11073583434331     -1.75184105655058     -1.51309676394652
  H   4.11106176636149     -1.70343539564998     -1.43073580987781
  H   2.71958894102789     -2.63623437394336     -1.77980922526377
  C   1.03038645131154     -1.24513816461824     -0.50600922582434
  C   0.01703903074334     -0.43540219998304     -0.03424454402499
  H   0.75467096216565     -2.26274744110677     -0.75219838852707
  N   3.38123019343966      1.52327203175850      1.55441141790659
  H   4.35948696639811      1.32941467878454      1.44255415313525
  H   3.12309148470904      2.41406486059520      1.93805225962379
  N   -2.45170690008406      2.76209817845147     -1.44345393210677
  H   -3.44493924026861      2.90477794848518     -1.45439371464171
  H   -1.88461654769785      3.58412829056087     -1.55537908026470
  H   -3.86528872491311      1.14170359379557     -0.05210211735236
  N   -3.49766475879836     -1.07251325393758      1.07468314847472
  H   -4.44129561939194     -0.78329844360214      0.89385665566165
  H   -3.37435823023799     -2.06008177021229      1.22177885655657
