24
Coordinates from ORCA-job ./opt_b97-3c_parallel
  N   -0.48580190804862     -3.56035200853482     -1.54834078271094
  C   -0.72739826206251     -2.49670609294993     -1.14808625346393
  C   -1.05026879899209     -1.20098436276010     -0.68098346916699
  C   -2.36081620629928     -0.74268627418671     -0.92935862709823
  N   -3.03793281595715      0.25055846881025     -0.41046828336454
  C   -2.48442122998774      1.11534958032631      0.47970951815597
  N   -1.25072486564838      1.57889653969708      0.54455354403361
  C   -0.16524505278257      1.00364514094694      0.04798675075388
  N   0.81977831848048      1.76778153665281     -0.37023010058788
  C   2.09578262585159      1.40017369034936     -0.54021953580488
  N   2.81657593552407      0.49338426017193      0.12634773143181
  C   2.21174364394939     -0.52698015410864      0.73263616476969
  N   1.02255869308695     -1.08680917271878      0.46137141090419
  C   -0.03263782101529     -0.47295261668221     -0.01834745393764
  N   2.93647096462643     -1.17401172810137      1.66992874099672
  H   2.64750579360210     -2.10020828095421      1.92751714261714
  H   3.90795189709172     -0.93563661283139      1.75405192314386
  N   2.78193816234696      2.13899284167125     -1.43628434049641
  H   3.77965474756415      2.03942391712120     -1.46901353878876
  H   2.36449169879549      2.98480075979587     -1.77760842981718
  N   -3.37178481560871      1.64290857063798      1.34983226025747
  H   -4.34707848180031      1.48529602000283      1.17465030991253
  H   -3.09840925269543      2.44821733191167      1.88240924776863
  H   -2.93738086452206     -1.35981073916741     -1.61204881870797
