29
Coordinates from ORCA-job ./opt_b97-3c_parallel
  N   3.50047952684474      2.03226342018225     -0.76425553467545
  C   2.39475971852971      1.72554996155538     -0.58754518251787
  C   1.01852313709085      1.39345164610481     -0.47315950299973
  C   0.13569393294947      2.37585870956976     -1.02921952600344
  C   -1.18958443821879      2.53941307074379     -0.83848009081661
  C   -2.03931744497158      1.78400661703672      0.03707320604779
  N   -3.19694146690083      2.39818363259262      0.39864424566230
  H   -3.24725321987486      3.39884100966874      0.34423422569534
  H   -3.78013946273306      1.97006542738469      1.09836544256709
  C   -1.77493105909558      0.48876716180812      0.45294240612072
  C   -2.70571102972985     -0.11080901208064      1.31954989415828
  N   -3.51749116505011     -0.56269445038059      2.02328369499470
  C   -0.68482137200795     -0.37090291368219     -0.03159671067219
  C   -1.00574476562887     -1.64547422545072     -0.38595513409051
  C   -0.17628295313917     -2.76714388049594     -0.68672128870284
  C   1.13347302312746     -2.92234996169670     -0.26356607316459
  C   1.86928673024397     -2.01668652867689      0.49103324143705
  C   1.66511606219792     -0.66806777513715      0.70444115674968
  C   2.50453677528630     -0.02779884869822      1.64618690566704
  N   3.16353076873451      0.47530317132649      2.46114525751811
  C   0.67501607097267      0.15560988778207      0.02990731189285
  H   2.75475564869804     -2.42017798867856      0.96645724509265
  H   1.59676361476303     -3.88516320805214     -0.44118833134367
  N   -0.77611914302794     -3.78134507412834     -1.37455841432318
  H   -1.77585359152931     -3.78836003728620     -1.46247826690623
  H   -0.33905508397837     -4.68516369153587     -1.38956955735347
  H   -2.06945591755737     -1.84261294918541     -0.45396670076649
  H   -1.65412663504541      3.39125398041754     -1.31923915247626
  H   0.62538963855059      3.12127653249264     -1.64208570449128
