28
Coordinates from ORCA-job ./opt_b97-3c_parallel
  N   -1.92595995172093     -2.48813331722537      1.37573324497609
  C   -1.67284114392248     -1.49578552471352      0.82300186634397
  C   -1.47094939939561     -0.21519226196206      0.25749385858156
  C   -2.65925545008783      0.62092555647057      0.24664295980096
  N   -2.87177602127558      1.73872580766916     -0.41757327383708
  C   -1.92318585989555      2.45731012875288     -1.02665739659151
  C   -0.55949689510208      2.41877897986030     -0.95794275800715
  C   0.30074156396202      1.47090628693782     -0.32915182852133
  C   1.57406019932677      1.87858195177195     -0.01271290950515
  C   2.64202989566879      1.13000141898186      0.54925785177878
  N   2.88733785347356     -0.16283086281280      0.47592255413204
  C   2.11809118657833     -1.04585119050035     -0.17356365323771
  N   2.78062361242277     -2.16615365813899     -0.52365256864867
  H   2.29813968293820     -2.97608367213323     -0.87166576875301
  H   3.72529367472893     -2.26158359380124     -0.19985930844939
  C   0.72373472971254     -0.98121637059243     -0.44335139215481
  C   0.17776225602769     -2.12695937088012     -1.05468796742653
  N   -0.16892165965148     -3.08832178590773     -1.61357867006319
  C   -0.16695419662013      0.09921781909430     -0.14342721140386
  N   3.61330567047341      1.85042418610808      1.17421326531325
  H   4.32307268064909      1.32415671870728      1.65297098305037
  H   3.39956189963078      2.76225006380309      1.53360077228547
  H   1.77044298084080      2.93639491012049     -0.13630290566101
  H   -0.04932337918270      3.23895509890459     -1.44842610677851
  H   -2.33292376675863      3.27088009895959     -1.61848005675237
  N   -3.72200351827492      0.18090256369498      0.95699546669610
  H   -4.59058963934693      0.66072873972660      0.80302006080557
  H   -3.74435541319952     -0.73985301199610      1.35774547642692
