29
Coordinates from ORCA-job ./opt_b97-3c_parallel
  N   -0.08983345380444      3.70243986845623     -1.03522800190505
  C   0.18927109982794      2.61543575707578     -0.73405007889494
  C   0.58387959799137      1.29228513060058     -0.39843141431244
  C   1.94852425541802      1.03854632447897     -0.49633396514160
  C   2.70366070977382     -0.06239174145708     -0.13976024393195
  C   4.10375723582736      0.03796846225687     -0.28353094335910
  N   5.26399027465438      0.05583285000319     -0.38060031214160
  C   2.19046082024038     -1.30132554260373      0.37547398507709
  N   3.11403910256259     -2.19766170623722      0.82352439861662
  H   4.08621216982772     -2.05696685175595      0.60951167698135
  H   2.83236473716487     -3.14424924405245      0.99716620878957
  C   0.85814869207386     -1.66824376801936      0.43108882082868
  C   -0.34964259111505     -1.00946973804330      0.10272974492710
  C   -1.44500951638022     -1.83052576049074     -0.16164773154848
  C   -2.81513985417921     -1.55896878987333     -0.33234391787600
  N   -3.58845013740960     -2.62624961440322     -0.72423407075664
  H   -3.12486243544914     -3.38034986961317     -1.19904216618814
  H   -4.50391382898025     -2.42379567807678     -1.08407775043824
  C   -3.47803757440147     -0.37203179268272     -0.03738795933777
  C   -2.85203469477846      0.75782286414583      0.48903667619365
  N   -1.57061754334154      1.09827166100590      0.39168393791716
  C   -0.48212123043045      0.44717069542799      0.05001437288952
  N   -3.60105642826659      1.69053560889503      1.13844646065148
  H   -3.20678275012204      2.61216237326196      1.21101378024471
  H   -4.60120305269026      1.61700609504237      1.13841970559458
  H   -4.55866940264886     -0.36415595255990     -0.11107143969815
  H   -1.19158939414145     -2.87835756066565     -0.27483197582006
  H   0.70653416974065     -2.69784259045384      0.73727661349493
  H   2.52496700703921      1.87352650624214     -0.87161054025630
