22
Coordinates from ORCA-job ./opt_b97-3c_parallel
  N   -5.16929645184788      0.06941797696510     -0.32063425166780
  C   -4.01673985379548      0.01087353238976     -0.18068554333746
  C   -2.61454068585608     -0.03766268724233     -0.00953518563461
  C   -1.90183194200414     -1.11473152327355     -0.54128701576896
  C   -0.56400974810682     -1.43250542059092     -0.40310225562413
  C   0.49946178010911     -0.64413969348324      0.05934587106696
  N   1.67838458069971     -1.23230072547390      0.26113773844585
  C   2.87517113989378     -0.69357848794371      0.12125867695150
  N   3.27084891332803      0.38390456432506     -0.61883197117453
  C   2.48744710184067      1.42828828474166     -0.74335939045785
  C   1.21624511626459      1.70192458827579     -0.21743728884354
  C   0.29957079298208      0.78982488223746      0.27309701660214
  N   -0.77492013926425      1.24120342114811      0.95085460836606
  C   -2.02489936401944      0.91363317424047      0.85985131105309
  H   -2.69155606816649      1.43544236725833      1.54057133918097
  H   0.89820176854562      2.73666390247283     -0.22506942495460
  H   2.94233776488322      2.24547875274421     -1.29777659130243
  N   3.89683676035034     -1.34729861105447      0.70168820477546
  H   4.83396958040452     -1.06616063925573      0.48066428521858
  H   3.73071610631955     -2.23714410899101      1.13412214961789
  H   -0.25958030945583     -2.40989771855586     -0.75379930841622
  H   -2.50013772980527     -1.84948396833314     -1.06539506369586
