29
Coordinates from ORCA-job ./opt_b97-3c_parallel
  N   5.28856678654358      0.95603888656911      0.08042164826964
  C   4.15445291661173      0.69643781057280      0.13788521723025
  C   2.79795793275321      0.32374607945040      0.16937588994727
  C   2.43749137702906     -0.95020224055453     -0.36576182219368
  N   3.41905336239654     -1.65463627343135     -0.99131943077583
  H   4.37313027284434     -1.34541765324419     -0.91854306241651
  H   3.28224729095106     -2.63136941082442     -1.17330255410266
  C   1.19005217958495     -1.55633551643868     -0.24185765598674
  C   -0.07740979408979     -1.08300596494963      0.14292896699087
  C   -1.07655887347414     -2.03893326006169      0.34403637447685
  C   -2.46726597239383     -1.93254012646392      0.28029144730294
  N   -3.17362757740023     -3.09804028625829      0.48804729314503
  H   -2.70736096262294     -3.82472521744345      1.00157886879800
  H   -4.14672492786531     -3.00716586678460      0.71974388967480
  C   -3.22316963964926     -0.82266766940135     -0.10918662644294
  C   -2.79569165050653      0.47100287630928     -0.35525469115906
  N   -3.71386302695925      1.34734643781443     -0.84931157445793
  H   -3.51444311361591      2.33336478567497     -0.82473297275313
  H   -4.68462532965653      1.09736476838024     -0.81101561056922
  C   -1.49181192526109      1.00693223543408     -0.08011340090697
  C   -1.41022220909929      2.41995900278477     -0.09294907603005
  N   -1.47233942181731      3.57990755433253     -0.16345404883966
  C   -0.31277427435226      0.35067241207038      0.30604211248017
  N   0.60260761722854      1.14850229465446      0.87248646693871
  C   1.90621448521841      1.13652077465237      0.87173746887479
  H   2.35594393998150      1.90628735748732      1.49270981697356
  H   -4.27774395471786     -1.00835380676385     -0.27667035686540
  H   -0.71099751254299     -3.05271775060851      0.46433833998176
  H   1.17450730368239     -2.58969604815755     -0.57043536818488
