26
Coordinates from ORCA-job ./opt_b97-3c_parallel
  N   -5.41257979466067     -1.01030064259376      0.10946844297732
  C   -4.28429417237242     -0.76312476813682     -0.03685164999184
  C   -2.92818451376162     -0.40682293714701     -0.16787343171224
  C   -2.11288517851856     -1.21877879091829     -0.97882968556235
  N   -0.81784386696991     -1.28114379412927     -1.05085600353734
  C   0.10030047414957     -0.54695058911031     -0.40117559072116
  N   1.12333620076311     -1.20721140142580      0.07171353980891
  C   2.37128049151110     -0.84450799757602      0.33408958201996
  N   3.05807944758463     -1.69165249283719      1.12916049273584
  H   2.66241659906897     -2.59894158284800      1.29621640351464
  H   4.04722961508476     -1.57434430483876      1.26048504835787
  C   3.03093510400782      0.29598402153661     -0.20616884615044
  C   4.43795171429188      0.31579137422232     -0.15144562877202
  N   5.59940235532380      0.28234016276135     -0.07333723239514
  C   2.35617096813892      1.43977896589983     -0.65968857515757
  C   1.01761749705553      1.73886312093464     -0.64102382940058
  C   -0.06977323826589      0.90320625011068     -0.28695701709759
  C   -1.26698539515247      1.44974113283621      0.14289323245971
  C   -2.52302374270410      0.85062070114818      0.35694852773483
  N   -3.44366993881678      1.57624312618042      1.03303433390086
  H   -3.25220740099305      2.52824773701811      1.28175302114406
  H   -4.40283640063061      1.27695830830754      1.06963143616200
  H   -1.22114501429918      2.50514886709529      0.38785077381581
  H   0.75663657096628      2.75449495853935     -0.91085404093260
  H   3.00502400931408      2.23607241025758     -1.00133317779114
  H   -2.63843531541753     -1.91906796828885     -1.62192493851523
