26
Coordinates from ORCA-job ./opt_b97-3c_parallel
  N   -0.65380595467061     -3.63805823127152      0.82981446819623
  C   -0.09836537776066     -2.64898589316908      0.56767157871073
  C   0.59481293855070     -1.45485176172556      0.25242534033039
  C   -0.22315084169576     -0.27239233523949      0.04347159673035
  C   -1.56243697168581     -0.50761901479084     -0.20674820905104
  C   -2.71006433156048      0.32464622165049     -0.27935429213744
  N   -2.87543650763327      1.60929587901039      0.01588826762525
  C   -1.84447972926684      2.37335848056179      0.38180888732565
  C   -0.48725664977303      2.17926410923776      0.43370933362761
  C   0.35276977938935      1.06393719447524      0.13204637475734
  C   1.69604520589095      1.38901606230228     -0.02864984676760
  C   2.86656110978528      0.63892239906079     -0.23150281386228
  N   3.99801200183897      1.35176956755619     -0.51940841186115
  H   4.00633926970761      2.33991844583126     -0.34332040187574
  H   4.88755115850227      0.89615604308840     -0.42581780534723
  C   2.98801132938618     -0.74986731737966     -0.15778799343470
  C   1.96999650236587     -1.63174959960519      0.11779137730737
  H   2.28800337968142     -2.65976886761965      0.24248028450989
  H   3.97754814210933     -1.17024797110984     -0.28333699643144
  H   1.87340702712836      2.45879332598139     -0.02458205671451
  H   0.05522651231460      3.07040997093062      0.72457781574959
  H   -2.15630638469926      3.37531441219556      0.66650905625681
  N   -3.85020796067434     -0.28777988589097     -0.69156999301600
  H   -3.91173927487912     -1.28779486777600     -0.73679365615350
  H   -4.70277646098511      0.23232666922679     -0.58267383279616
  H   -1.79909214951176     -1.55021041192623     -0.36994793213029
