28
Coordinates from ORCA-job ./opt_b97-3c_parallel
  N   4.82465078930861      0.65953193241728      1.11279446721453
  C   3.80001430474410      0.36156961265245      0.65122165206042
  C   2.56787346947914     -0.00772350535764      0.05281923755392
  C   1.43698297178924      0.64412784105204      0.44609972525459
  C   0.10019073533440      0.40893325785085     -0.02828146889573
  C   -0.74480208882273      1.47885648440590     -0.23274728243582
  N   -2.05830743509587      1.46701376020938     -0.59087764045472
  C   -2.91172886359721      0.54303449924091     -0.23839498338677
  N   -4.19467778085425      0.74085097606285     -0.66137117904088
  H   -4.42712866685663      1.65915958036552     -0.99628716784645
  H   -4.93903162241985      0.17808052821049     -0.29650857303287
  C   -2.69824822657868     -0.63041628645593      0.56458447312649
  C   -1.54588760561988     -1.34646390911878      0.62321739015269
  N   -1.46697025744266     -2.50650102853265      1.34624762501049
  H   -2.17357030074467     -2.67516815880672      2.04270151240957
  H   -0.54424672201715     -2.80848088798948      1.60591904620162
  C   -0.33420781306509     -0.99141279236866     -0.14244823153187
  C   0.36301513261810     -1.96313404473312     -0.76400768414692
  C   1.65463220031460     -1.82970325590803     -1.39202553410572
  C   2.64010642180191     -0.99933827982903     -1.01243323195180
  H   3.60277848294824     -1.08982261732865     -1.50047000001500
  H   1.88384323202005     -2.54856122660665     -2.17037229878723
  H   -0.07037088410582     -2.95686023219887     -0.79131151132521
  H   -3.55824453239241     -1.00731734754832      1.10823246260789
  N   -0.24292340753450      2.76672180447349     -0.12223596283157
  H   0.69718561174355      2.90692858616713     -0.45221650732160
  H   -0.88619802830788      3.45354084531346     -0.47878550724281
  H   1.56032943115366      1.43497438606117      1.18249415566121
