28
Coordinates from ORCA-job ./opt_b97-3c_parallel
  N   -0.63644789024746     -3.86193441210228     -0.69836565744123
  C   -0.87629096070488     -2.74143229424759     -0.49173866627357
  C   -1.19589737247459     -1.38235060474638     -0.24856028489227
  C   -2.57778242884235     -1.13850123555905     -0.28371298134877
  C   -3.30457478128177     -0.00179144850688     -0.07810611820600
  C   -2.77878525696287      1.28051056824717      0.16179109114097
  C   -1.43996296530153      1.64674901034430      0.15427584052819
  C   -0.22308011536340      0.95135943189829     -0.01116245164591
  C   0.88862210740196      1.78838163402334     -0.18577900118002
  C   2.27334859570121      1.57343230450631     -0.19170778638129
  N   3.00301463528124      0.49538445548068      0.09340209326979
  C   2.45295182340788     -0.67962584161348      0.38147022742908
  N   3.36681029288030     -1.61005561289823      0.77977281430385
  H   3.12682069227852     -2.58418017908838      0.76529860400691
  H   4.33164506848849     -1.37414224170464      0.63043612017231
  C   1.11942436985132     -1.12918369916823      0.31132838433340
  C   -0.08748757948858     -0.50519350500273      0.02125706782499
  H   1.03536225317544     -2.19339102608737      0.48007731137487
  N   3.05061126049273      2.66993309713640     -0.46104245932057
  H   4.01998898020330      2.47193685048255     -0.63604693464101
  H   2.65252228568415      3.43170533943062     -0.97889624971550
  H   0.62818920781736      2.83090919835748     -0.32275126697410
  H   -1.29319636696967      2.71334326381882      0.28644445358709
  N   -3.70146528846998      2.29060884379480      0.33428800110190
  H   -4.61835959668116      2.01717676788815      0.64066508480081
  H   -3.37553622543239      3.14214258825022      0.75685148202591
  H   -4.38231656294818     -0.09242166322361     -0.12422152971480
  H   -3.16667803789634     -2.02424221860962     -0.48774981636066
