24
Coordinates from ORCA-job ./opt_b97-3c_parallel
  N   1.52319216418836      3.56510304228116      1.05139617686026
  C   1.42784775398469      2.44024147096814      0.77250356714438
  C   1.31255584519183      1.06974077779155      0.43476452109171
  C   2.51080181998280      0.35401175441675      0.49434760023288
  N   2.84585188401658     -0.86448144240205      0.12273758386952
  C   1.96521591886476     -1.81188212982172     -0.22867290164753
  N   2.55881680011662     -2.93572153401477     -0.69032668265235
  H   2.03258879206349     -3.74926105626232     -0.94453914795442
  H   3.56033972495876     -2.99026812208517     -0.65013410254152
  C   0.56348393809519     -1.83211170048533     -0.09698696411800
  C   -0.33608468398007     -0.79816926337419      0.09131048212600
  N   -1.58864084343434     -1.17200396569480      0.41898141359508
  C   -2.73270732935142     -0.58762121449542      0.17413484454077
  N   -3.06293872013807      0.39538780355086     -0.72629307147754
  C   -2.18961511062021      1.33023538472005     -0.98583863208042
  C   -0.87279223212963      1.53371119539192     -0.53038251207427
  C   0.02180681239285      0.62011929215795     -0.00783007797976
  H   -0.48737391557398      2.52807328848784     -0.71280929400751
  H   -2.56854006873952      2.11456828317814     -1.63763236805267
  N   -3.80498051756484     -1.04929360441774      0.85032009922780
  H   -3.70951523343333     -1.86122204047378      1.43078860704272
  H   -4.71609654723754     -0.72977305864980      0.58089680203166
  H   0.09512073375652     -2.80806577080554     -0.13289576040581
  H   3.35393950849201      0.93330116833808      0.85907730792966
