24
Coordinates from ORCA-job ./opt_b97-3c_parallel
  N   3.79892297136744      1.94010502864352      0.74961511003950
  C   3.02575636494229      1.10445189474275      0.51780827560477
  C   2.09449215230054      0.07214314619227      0.23577310514483
  C   0.84916429714966      0.47923225908692     -0.28353956835922
  C   0.62907769587452      1.81558357083062     -0.67886867127963
  C   -0.55525101649175      2.51451047027773     -0.64397213723642
  N   -1.74909641679978      2.21866411872026     -0.12984118603106
  C   -2.15629397435630      1.01320991479226      0.22792451904532
  N   -3.33621068772592      0.98251620453709      0.87225025210568
  H   -3.85568575146771      1.84090725704277      0.92458519887454
  H   -3.80062593995600      0.11812914369633      1.08738459290009
  C   -1.54616472110193     -0.26327762251938     -0.08346461428482
  C   -2.40468221168714     -1.38658234211622     -0.07427072080880
  N   -3.17772719234859     -2.25270783347769     -0.00729250942041
  C   -0.21972815344339     -0.49978719294863     -0.42041854438854
  N   0.05874323262644     -1.69626188939885     -0.98994007158549
  C   0.96680427637098     -2.56413391396494     -0.69084331710120
  C   1.99009927295093     -2.43865554378813      0.27407431285264
  C   2.51355974769060     -1.22592208568446      0.62452723241114
  H   3.42429350291011     -1.24433903990133      1.20961556526065
  H   2.51459618924059     -3.33399806814497      0.57708044457125
  H   0.95795250225030     -3.46547439813067     -1.29897006288052
  H   -0.49973574829374      3.53627615800338     -1.00660847818889
  H   1.50151449599798      2.39021980621037     -0.96108347854538
