28
Coordinates from ORCA-job ./opt_b97-3c_parallel
  N   5.21343762158520     -0.34329796753372      0.70158461715858
  C   4.06872415880029     -0.22559184857472      0.52232816041880
  C   2.68589311105548     -0.15837912925596      0.26387991271050
  C   2.00674335370118      1.01277907761069      0.54072741420495
  C   0.67927569500066      1.37161254116986      0.31190770920555
  C   0.39329286158561      2.73471391921149      0.57371309183275
  N   0.15130384980692      3.85394483607338      0.77753068238004
  C   -0.43620668067540      0.55237910443978     -0.06921177541016
  C   -0.29978690948778     -0.91078991541859     -0.09730697486369
  N   0.80903572942074     -1.54530142702345     -0.51582053730434
  C   2.08192196441380     -1.26010111545612     -0.44220833234797
  N   2.91006820847964     -2.10590037265282     -1.09387172298545
  H   2.52315284339937     -2.95020204349064     -1.47270116346681
  H   3.90727467834532     -2.00778357531745     -1.03579707992366
  C   -1.34267936328364     -1.74899807835162      0.25710813822525
  C   -2.71737236857426     -1.49058546516790      0.43552329998277
  N   -3.45182958545069     -0.45759930675963      0.03121613456036
  C   -2.94683905798745      0.67614255605422     -0.44115740891680
  C   -1.62648139809362      1.17847609121732     -0.38054433071891
  H   -1.55799506777039      2.24665072375752     -0.53849703306044
  N   -3.87855832531587      1.50166394583851     -0.98505820542144
  H   -3.65510812318249      2.46117833873373     -1.17372627215556
  H   -4.84241815937660      1.27536446499208     -0.81558146000614
  N   -3.44763501170599     -2.46768345383648      1.02997567880877
  H   -3.03861959505111     -3.35542074794213      1.25059149431836
  H   -4.44753907850482     -2.40736878195670      0.96541399459235
  H   -1.04563352832375     -2.78614320690788      0.34843070762705
  H   2.61600416579720      1.80055538585476      0.96356708966318
