29
Coordinates from ORCA-job ./opt_b97-3c_parallel
  N   0.63524572366851      4.06155368749618      1.11674310660321
  C   0.77364760508207      2.94687923998953      0.81624588544915
  C   0.92998068772302      1.59168902688476      0.43137142987695
  C   2.21816297607815      1.09265363697406      0.59666197309641
  C   2.78051430322393     -0.11071596848185      0.20347902531770
  C   4.16132117571145     -0.31782633913082      0.39528105251768
  N   5.29667477170836     -0.54578155421400      0.51212095321987
  C   2.05188061597157     -1.10757373030662     -0.52312012449038
  N   0.74703976651232     -1.25517853790172     -0.54050425139863
  C   -0.27864668624849     -0.53391747154911     -0.11500698268776
  C   -0.26386634763778      0.93093284164152     -0.02599210409637
  C   -1.35960550984041      1.70097562904463     -0.34049133638007
  C   -2.71529150295023      1.32549730679908     -0.50360518927338
  N   -3.34823061560675      0.24546474054356     -0.06663523627158
  C   -2.77341178605906     -0.85889236440476      0.39099577691811
  C   -1.41570692036619     -1.29123413960402      0.23842337176876
  C   -1.19256325154704     -2.67627237121167      0.40497866635665
  N   -1.10987940947694     -3.82285265963351      0.58559830587138
  N   -3.62908861489746     -1.70981686472655      0.98944613011864
  H   -3.34592718506802     -2.63716572077695      1.25280154741401
  H   -4.60940871595425     -1.50456844349454      0.92183880867376
  N   -3.52324101679539      2.23103109859246     -1.10102204157308
  H   -3.18832458889798      3.14599894275747     -1.33755393640946
  H   -4.51554241641458      2.08770628069531     -1.04413838413644
  H   -1.17723736427030      2.76347934997958     -0.43147438143263
  N   2.74214304905405     -2.01403500781297     -1.24213642422710
  H   2.24734447217279     -2.82034745367038     -1.57901176901050
  H   3.74560401066057     -2.04363968758342     -1.20743028550128
  H   2.90841166258668      1.78304221450300      1.06249086476811
