26
Coordinates from ORCA-job ./opt_b97-3c_parallel
  N   -0.67546806669993     -3.64757857696718      0.88243246364146
  C   -0.66493763877330     -2.50611224296614      0.64295741904405
  C   -0.72694261634674     -1.13266611922440      0.35025607613436
  C   -2.02189294891551     -0.59125513197037      0.18099120878098
  C   -2.34256718436955      0.70796531870457     -0.25518317252115
  C   -1.54163483042153      1.83219415632395     -0.27565978349976
  C   -0.19415183358401      1.92968623759924      0.16384821816452
  C   0.70853598063425      0.93579869675024      0.39295192326999
  N   1.84380485902079      1.27647762710064      1.08472075899776
  C   3.07281890261396      1.04307587750773      0.75658651421286
  C   3.56750598170806      0.25745320699736     -0.30770342079350
  C   2.85517305377920     -0.78846161623029     -0.83558211819867
  C   1.54069549196640     -1.18576489734247     -0.54822277889599
  C   0.51565196184737     -0.47530005603885      0.05188476635810
  H   1.26858422573647     -2.16903846791750     -0.90984400800872
  H   3.39469985099142     -1.45054912023741     -1.50347941416795
  H   4.61734695371527      0.34948222205682     -0.55290305081246
  H   3.81103107432791      1.46829344073441      1.43493753669735
  H   0.15956880510488      2.92488311902389      0.40797415354962
  N   -2.10048192813605      3.00765269865089     -0.71019730430864
  H   -3.10154400126027      3.08922911875271     -0.70767122006039
  H   -1.61351510498826      3.86102309186069     -0.50565460140673
  H   -3.37831949981367      0.85724989600252     -0.53940248380645
  N   -3.08124321727759     -1.41551271999503      0.41451321041320
  H   -2.93028709747676     -2.40615026379445      0.50093954972407
  H   -3.99485750328000     -1.12968353438087      0.11749835809039
