22
Coordinates from ORCA-job ./opt_b97-3c_parallel
  N   -0.59349285078643     -3.06111981459985      1.78998109511662
  C   -0.88399842333117     -2.13318022609191      1.15481004966788
  C   -1.25931042557208     -0.98044405041946      0.42304861794493
  C   -0.22589703156587     -0.04179146124070      0.07973073703806
  C   -0.63488817384197      1.36594342749684      0.12673241855456
  N   -0.00569692202846      2.20568307937526      0.95259063662333
  C   1.28288396268694      2.24364523429958      1.15111228920757
  N   2.28357733264657      1.69878918828852      0.46014857027462
  C   2.18585985393012      0.57985621172309     -0.23838918045639
  C   1.08444270656480     -0.37903118646779     -0.20257720095783
  C   1.40493639668513     -1.70207901367194     -0.57615409975642
  N   1.74713871474051     -2.74419964385462     -0.96104175991247
  N   3.26028005173695      0.24979209135861     -0.96614655676772
  H   4.08205158070900      0.82137060704967     -0.87614625208945
  H   3.33544317930692     -0.64142911697313     -1.42484620277587
  H   1.60443862150161      2.89616919495273      1.95644720842062
  N   -1.62334195003966      1.80067386991170     -0.61157189428316
  C   -2.66012871799216      1.13971685711927     -1.09106646875268
  N   -3.24642272424368      0.05109127664377     -0.62576748887676
  C   -2.61984911772599     -0.82245952165456      0.16026444794800
  H   -3.26448197162090     -1.58846911297490      0.57710032139170
  H   -3.16258724356020      1.62080433542938     -1.92357486895953
