31
Coordinates from ORCA-job ./opt_b97-3c_parallel
  N   3.60892745266597      2.12894642892971      1.55362564536136
  C   2.85236503372821      1.40633633285402      1.03587240676409
  C   1.96773191238439      0.52572404642049      0.39332316247398
  C   0.71391634912037      1.06959449554624     -0.09153633810391
  N   0.72183494951917      2.43536456944073     -0.41788011023558
  H   1.53735672494156      2.92487049861316     -0.08302992302041
  H   -0.11364506691609      2.92343548432506     -0.13343169078076
  C   -0.40830832989886      0.32782416698683     -0.27463780122267
  C   -1.60995115769226      0.88985538472395     -0.93483759447013
  N   -2.81142286674794      0.88853911159522     -0.45027600254664
  C   -3.19645309353794      0.21352756823764      0.67105187909368
  N   -4.33335992324297      0.75630081931556      1.23991994957593
  H   -4.51225980999926      1.70940242281764      0.97476357333557
  H   -4.47696879024897      0.56590743413850      2.21577156407074
  C   -2.71079099049723     -0.99146875387027      1.13135403205917
  C   -1.57537029722020     -1.66439437232123      0.63854661273008
  C   -0.51451005170998     -1.10320838274520     -0.01030499721948
  C   0.52269817123424     -1.93819389052322     -0.61870093831150
  N   1.81078309865347     -1.76046676152623     -0.53843916694230
  C   2.40478615596104     -0.78734176061600      0.19838244210332
  N   3.59049070491121     -1.19112041440872      0.73023184438175
  H   3.97583415241928     -2.03364860878643      0.34433274978566
  H   4.24086741001531     -0.50433318294077      1.07150357618620
  N   0.10067733734788     -3.02559748841842     -1.30798555685250
  H   -0.84960570219819     -3.05794231099165     -1.62617482231324
  H   0.78845475097032     -3.55854308604395     -1.81336218359065
  H   -1.52993008869789     -2.73196471580341      0.82844501661268
  H   -3.31290671221107     -1.50972086557828      1.86801143167433
  N   -1.42435033577427      1.40806195092340     -2.17872455347281
  H   -0.50666025408640      1.76570600390174     -2.38854171769761
  H   -2.20122437169141      1.91413920480325     -2.57131187782760
