28
Coordinates from ORCA-job ./opt_b97-3c_parallel
  N   -2.58585032171959     -3.57208846401526     -1.28346315764218
  C   -2.11883028692475     -2.57630426959897     -0.90185977360751
  C   -1.61810645655475     -1.34738986191203     -0.42475474063502
  C   -0.20785499407751     -1.29317998841753     -0.15769336610593
  C   0.61478269432158     -0.23031644153193     -0.01064888591622
  C   1.98431955475133     -0.48068712974374      0.47655886077665
  N   2.11612333905605     -1.44421765133052      1.40107508508838
  H   1.30318443761957     -1.83957319422170      1.83530644913100
  H   3.01844372515360     -1.67093271111876      1.78699681698211
  C   3.11522591125040      0.15574858750264     -0.02763574690561
  C   4.37272811660221     -0.28382594663998      0.43154166435202
  N   5.38454940517994     -0.68104730171838      0.84787906003581
  C   3.09616777508776      1.12352908755335     -1.09209375223201
  N   2.19471180324838      2.00805389835207     -1.35474041453946
  C   1.03231362549706      2.14522304678039     -0.67677493621586
  C   0.21436611737128      1.17630068036176     -0.15939853503828
  C   -1.06173009234445      1.61956673153783      0.30179702264447
  C   -2.24408103334965      0.95060907934178      0.41835087415672
  C   -3.33652485233369      1.68246604642618      0.94867731790282
  N   -4.26259812299615      2.24805678830613      1.36517906862863
  C   -2.56431098338845     -0.38210546683278     -0.10749189941352
  N   -3.87367473948911     -0.63562021231535     -0.27441320730399
  H   -4.57406373862226      0.03454874411108     -0.01159841553000
  H   -4.18179022163745     -1.53180348702067     -0.61135153868961
  H   -1.10880473659544      2.66931987210626      0.57054786090242
  H   0.66633117671451      3.16765785189172     -0.65229893318331
  H   3.98304817186228      1.15229177976431     -1.71930147252311
  H   0.24926552654107     -2.27309434741561     -0.09277025151936
