33
Coordinates from ORCA-job ./opt_b97-3c_parallel
  N   3.79056813541642      1.68455877621520     -1.94001751540580
  C   3.01895161921730      1.11558224893343     -1.27364707987581
  C   2.11230688999213      0.42061057423886     -0.45650616448583
  C   0.93473827949138      1.14401315775490     -0.00536429182103
  N   1.09447871511153      2.52580891629982      0.18121480943085
  H   1.94869488480194      2.89070876995405     -0.20959575302978
  H   0.30751243435074      3.07280927926661     -0.13224949203460
  C   -0.23916591873012      0.54125325977596      0.29840715234477
  C   -1.33921132008691      1.25717376305376      0.96954026251920
  N   -2.55133008266785      1.33709623406028      0.50318814454971
  C   -2.90633329989995      0.69175459864353     -0.64896408823547
  N   -2.60169617290989     -0.50419712140399     -1.08754670898708
  C   -1.65997296680215     -1.30071148918669     -0.51420772111555
  N   -1.95103663145922     -2.66842526022367     -0.67189120815714
  H   -2.71020316426761     -2.77545279697252     -1.32736100027089
  H   -1.15525819999942     -3.21723974957414     -0.96358009543863
  C   -0.52720652750933     -0.88658110261356      0.13717305639714
  C   0.35443905869007     -1.80650266420479      0.84976791370585
  N   -0.24210223863067     -2.75267244008222      1.63464195828685
  H   0.31381059016842     -3.52522959170319      1.96003027946158
  H   -1.20087000373987     -2.97499499746622      1.42018106197714
  C   1.72220613863306     -1.72088357415909      0.80679273979162
  C   2.50227614433736     -0.83652685879250      0.01320437136351
  N   3.78793154674220     -1.25755812927975     -0.21894848392634
  H   4.34934593597969     -0.71752640397416     -0.85643611379003
  H   3.94203954269437     -2.24863566184005     -0.26679593028327
  H   2.28801351097436     -2.44949596032777      1.37818062192689
  N   -3.79365053544055      1.40653743247711     -1.40438014798168
  H   -4.28887378212411      2.13760705510536     -0.92626885405882
  H   -4.31433443578737      0.87786021573610     -2.08229785106331
  N   -1.07441630037740      1.81468788319462      2.17253178479594
  H   -0.11461089230246      2.02735267564367      2.38163910862382
  H   -1.77573268566628      2.41749863165181      2.56955234868644
