27
Coordinates from ORCA-job ./opt_b97-3c_parallel
  N   -1.69965111881230     -3.59581782134249     -1.50500981697129
  C   -1.62895612520688     -2.51218773354423     -1.09255944691212
  C   -1.59485586783498     -1.17524330332991     -0.61965739097501
  C   -2.80650180388834     -0.48100496385995     -0.70470111465175
  N   -3.20823126643692      0.66744407373730     -0.21061998993257
  C   -2.39865012863247      1.55371633296021      0.39025619586086
  C   -0.99505441642702      1.61969066370066      0.40188434661586
  C   -0.03748244777926      0.67464319235798      0.06212163903519
  C   -0.35060600804002     -0.75269260329254     -0.05509494327968
  N   0.46509928529868     -1.71447346357711      0.29609807496630
  C   1.76988670465127     -1.67354638595569      0.58632968587035
  N   2.72849315618242     -0.88087665394774      0.12230074673261
  C   2.48742383956651      0.34872095702315     -0.32499040393215
  C   1.29035504129830      1.12497840495954     -0.20222698629403
  C   1.45229501993528      2.50421835098364     -0.42821404628974
  N   1.63404712932106      3.63817359743329     -0.62754881254540
  N   3.55946435393173      0.93533466002349     -0.89330379793267
  H   3.55375122237262      1.90405695716540     -1.15752163988720
  H   4.43804653497469      0.45504581723085     -0.82614559680313
  N   2.18007634248893     -2.67430991845978      1.39341534830966
  H   3.16711330732086     -2.81691215435201      1.50550450556126
  H   1.55865167265827     -3.44945834915743      1.53720435140281
  H   -0.59846126917389      2.58751597493114      0.68233339271364
  N   -3.07462909157564      2.56188861750503      0.99354092250720
  H   -4.05664305412311      2.63526567299893      0.79507929446577
  H   -2.59748648823743      3.37851595620732      1.32700462382151
  H   -3.59249566851810     -1.02468071969209     -1.21998793835510
