24
Coordinates from ORCA-job ./opt_b97-3c_parallel
  N   -2.12154057218961     -2.63819252125659      1.81015484104829
  C   -1.95880509005712     -1.64651548598644      1.22444473162160
  C   -1.73721443982762     -0.45830376685547      0.48975602319412
  C   -2.80682003360577      0.42359044890772      0.39998167936258
  N   -2.98120988659157      1.50123815070415     -0.36663892726408
  C   -1.98655283183930      2.03403561345414     -1.06058478811412
  N   -0.68435117099952      1.97493036087968     -0.88677122883881
  C   0.04716553651601      1.09954519427695     -0.21653957775918
  N   1.18482375935935      1.52215999673632      0.30343650647043
  C   2.32604558553050      0.86439233351538      0.41118887721473
  C   2.68573728497860     -0.35602101309824     -0.20564479787720
  C   1.80836547767124     -1.36320424158565     -0.55564363887759
  N   2.30712878491315     -2.51149287849967     -1.10167764689557
  H   3.29101538562336     -2.69749435568136     -1.02628781271123
  H   1.72205015228770     -3.32684061895975     -1.11856532771489
  C   0.39796613934803     -1.35698795369659     -0.32712459392759
  C   -0.40849481924130     -0.29173544888639     -0.06572662460820
  H   -0.07453337444112     -2.33198949702890     -0.31954831886915
  H   3.74540862103149     -0.56366601927097     -0.29701008818518
  N   3.26900110143461      1.49564032116447      1.15833596308881
  H   3.11821641936973      2.46437414051158      1.37438614851916
  H   4.20828404444150      1.14888778552437      1.19420654350414
  H   -2.29911966068082      2.70476612413268     -1.85611768772402
  H   -3.68318610872945      0.14743358579717      0.97763945994165
