23
Coordinates from ORCA-job ./opt_b97-3c_parallel
  N   -4.77897004220275     -1.42816595775492      0.78997739328917
  C   -3.67663416175336     -1.12089348186114      0.59716301177028
  C   -2.33212409677635     -0.73188466267821      0.36613465371205
  C   -1.33021735978652     -1.50472371879981      0.91179058944933
  N   -0.03871905745713     -1.47247020684496      0.57287948778725
  C   0.70587609868116     -0.51329290996465      0.15162310221564
  C   0.31878488231911      0.90115018364975      0.13051949312312
  C   1.12262438943159      1.89902598605719      0.58515260315539
  C   2.46096898282362      1.74759224766952      1.04623835382549
  N   3.35348383239341      0.87393430653119      0.68584134062617
  C   3.14874063026291     -0.13814592698962     -0.18712085441964
  C   2.00056968181194     -0.83406877982909     -0.45211132139423
  C   2.05043291201633     -1.97098270122468     -1.29221233992691
  N   2.08062130821603     -2.89119632941808     -1.99937537228364
  H   4.05525617339149     -0.48927707575299     -0.66671360722852
  H   2.81764908210105      2.50334032018236      1.74092974076330
  H   0.70620903310288      2.89788024139538      0.64306488634475
  C   -0.96680621437686      1.17333677998838     -0.51734672859368
  C   -0.99550526105406      2.33663470765822     -1.32779513196687
  N   -0.99648120308301      3.30645566346672     -1.96643622781945
  C   -2.11388061218845      0.43746738043535     -0.41781413724088
  H   -2.97777333364841      0.82596368679759     -0.93930082023997
  H   -1.59859898232163     -2.30046597491174      1.59516737595216
