31
Coordinates from ORCA-job ./opt_b97-3c_parallel
  N   -4.93778526053845     -0.26484060172906      1.08931202915583
  C   -3.89202345108915     -0.35464518975169      0.58604736251227
  C   -2.60348671190621     -0.39826532169714      0.01468740447511
  C   -1.66813519872005      0.53727880268423      0.44255196824684
  N   -1.90647683031595      1.36048824655455      1.47514433243949
  H   -1.33340245609330      2.17936289292402      1.58046448216829
  H   -2.79994443975166      1.35312739043151      1.94089167490467
  C   -0.38023764970678      0.66290198344820     -0.25158660891558
  C   0.04299885185779      1.84810189869307     -0.77545018245334
  N   -0.78712315995512      2.97608278423364     -0.75261516146282
  H   -0.43747735480110      3.74847779284916     -1.29451134251506
  H   -1.75431737940948      2.79350482243699     -0.97299993456634
  C   1.36643410101706      2.05186648488961     -1.30028078031419
  C   2.50202117539584      1.43243316377875     -0.90685607733551
  C   2.66874183844113      0.39126211450350      0.06716374199088
  C   3.93249284563798      0.26554326686542      0.68380997207785
  N   4.95273773421185      0.10457247677259      1.22082279083869
  C   1.69167867922036     -0.52503775880892      0.42460023259817
  N   1.87200200901866     -1.40585032966522      1.43183915724845
  H   2.76909477391990     -1.47147634751855      1.88594659255506
  H   1.29232053573479     -2.22741801081375      1.45036689315407
  C   0.39890711224868     -0.57128892789017     -0.27744712911256
  C   -0.05862592960411     -1.72552695794545     -0.84078624740092
  N   -1.28098094251680     -1.90990149448736     -1.44619020218551
  C   -2.37173345244257     -1.34268626464111     -1.04585274273033
  H   -3.27156384812334     -1.67923864529249     -1.55578033618389
  N   0.70641636105081     -2.89368353985448     -0.84297859193376
  H   1.69053208186438     -2.75144871767610     -1.01505151962762
  H   0.31737820635187     -3.57051052433972     -1.48091702186007
  H   3.42687278618543      1.80881930597993     -1.32682022749194
  H   1.47678267132401      2.86467662885607     -2.00948898667254
