32
Coordinates from ORCA-job ./opt_b97-3c_parallel
  N   -2.38077933086111     -2.66613339325143      1.32207353072605
  C   -2.15815140578764     -1.64335239898850      0.81532554319249
  C   -1.99922845689520     -0.32963840611416      0.30527404222304
  C   -3.18586236602831      0.47726627106683      0.41340193352396
  N   -4.23184895162865     -0.04102713391730      1.10006759139307
  H   -5.12439604974200      0.41376807066992      1.05251275879796
  H   -4.22915665307644     -1.00266592437014      1.39423282360382
  C   -3.35107282770331      1.71675819708052     -0.19385499296790
  C   -2.38214574825541      2.47354008923863     -0.82626064028947
  C   -1.01615672209500      2.31985954678933     -0.88836649632712
  C   -0.18362476204738      1.29438869565444     -0.38733094749950
  C   1.18019630390825      1.59837387239204     -0.19309682729476
  C   1.54816187692285      2.95239091029720     -0.35847222189078
  N   1.90605746696576      4.05515000155392     -0.46222297707916
  C   2.23070573654655      0.77301402140913      0.33340883116555
  N   3.29057267331751      1.41467165410089      0.86247973895292
  H   4.11598909512693      0.90845508169940      1.13073644925496
  H   3.33765912609320      2.41793311673895      0.86321234869937
  C   2.27040845032975     -0.63385175151705      0.31687094987542
  C   3.41504728052726     -1.24068431134643      0.86255305034183
  N   4.37731279558562     -1.72817661234511      1.30354122247634
  C   1.36643170160308     -1.48799614038988     -0.38249414984752
  N   1.81806153353848     -2.70897407578719     -0.71839145368002
  H   1.18625706091694     -3.40974535189373     -1.06607545999510
  H   2.74934578202085     -2.99740131521990     -0.47712830492536
  C   0.02935951892854     -1.17221958481347     -0.68420441623898
  C   -0.68024567293005     -2.13390541329207     -1.42960977345934
  N   -1.19609817036035     -2.95045719929610     -2.08060057694644
  C   -0.72704605208899     -0.03769885296841     -0.21453700851433
  H   -0.49283207836352      3.13319888550999     -1.37184214607574
  H   -2.74892608351579      3.38038807220398     -1.29182508655442
  H   -4.34761329095268      2.13892903040581     -0.15840932704134
