26
Coordinates from ORCA-job ./opt_b97-3c_parallel
  N   4.92941107591186     -0.40818829416941     -1.47893685474990
  C   3.91388033887188     -0.38888795311551     -0.91399520867382
  C   2.69549703627751     -0.39341492596376     -0.19592509017200
  C   1.73285430043812      0.53075755581227     -0.47421063538876
  C   0.44324088003363      0.60037868848824      0.14970637609800
  C   -0.12329933906464      1.82967719802324      0.41279543745538
  N   -1.37439134341542      2.09277707281606      0.91879533438078
  C   -2.41447968146668      1.35756397169903      0.70519023405465
  C   -2.57184842375188      0.12956615720820     -0.02016472189273
  C   -3.86670249137658     -0.17596897361011     -0.49052092426622
  N   -4.90996686138510     -0.48167213605868     -0.90483221605571
  C   -1.58207447127107     -0.82972148623879     -0.20160640865562
  N   -1.84340665472260     -1.96689486016572     -0.86046437688252
  H   -1.10288203931561     -2.61118366115351     -1.06510380491555
  H   -2.73919391423112     -2.12059481460678     -1.29483141810319
  C   -0.23715373853032     -0.68512870059637      0.37391299599329
  C   0.36214198722135     -1.76062704640119      0.92173478994032
  N   1.61284550887850     -1.82132524064035      1.51273516377444
  C   2.63460277141909     -1.25721229780424      0.99614067392017
  H   3.58476293876348     -1.41065194079347      1.50414457392863
  H   -0.19308267407639     -2.68559241399213      1.02547540428044
  H   -3.34272899991257      1.76704587664201      1.09635675553844
  N   0.59348553376760      2.98241877357600      0.20466076254446
  H   0.14008059907642      3.80510297908716      0.56396122761070
  H   1.58541227313346      2.96131436548862      0.35984534363155
  H   1.96555176602120      1.28526548645362     -1.22248785079120
