25
Coordinates from ORCA-job ./opt_b97-3c_parallel
  N   0.71717714153441      3.59722063629975      1.33291808793496
  C   0.29999723260782      2.56600807835599      0.99998858205402
  C   -0.23104828857394      1.30806066576712      0.61773702874540
  C   -1.60515145787612      1.22372214547152      0.47137943736757
  C   -2.41864549112911      0.20340033001297     -0.02016637481141
  C   -3.78169333152500      0.51843366809159     -0.22114464645644
  N   -4.91376703995074      0.70593426580355     -0.41232481108940
  C   -2.03490020459880     -1.13725496934954     -0.31338627180560
  C   -0.78580128597347     -1.70678503752628     -0.01571346916619
  C   0.39450119049158     -1.12399371166971      0.38949367816279
  N   1.30464619861332     -1.91468513321733      1.00075185603082
  C   2.60875213480485     -1.81396911222032      1.00454480819446
  N   3.44546468481701     -1.10697850874147      0.24627476180983
  C   2.98885300665449     -0.04380935562529     -0.41699651348922
  N   1.88996703705090      0.70058484037799     -0.17994589604665
  C   0.72267492953435      0.30358642324801      0.24866469266113
  N   3.78603065752877      0.44428081794558     -1.38381072571216
  H   4.69852036578394      0.03957682588974     -1.49182884909888
  H   3.61886153401794      1.37344616978816     -1.72495202960460
  H   3.10206164935695     -2.48352228762019      1.70327759591795
  H   -0.75411579731935     -2.79032425143391     -0.00882099361772
  N   -2.97481592406992     -1.96228188824045     -0.82184241497859
  H   -2.77718605240852     -2.93582103787367     -0.95502380922847
  H   -3.93108728860286     -1.66565318470797     -0.91371573643073
  H   -2.13492077816858      2.13695678637511      0.70661804995629
