29
Coordinates from ORCA-job ./opt_b97-3c_parallel
  N   5.39166619779995      0.23807970337157      0.50147460349131
  C   4.23760388046917      0.36458114934068      0.39984588447503
  C   2.84398384909382      0.45811050445287      0.23992834605411
  C   2.18675875679863      1.63477030850747      0.61744290540855
  C   0.87554978445310      2.00588103788060      0.47502773586116
  C   -0.27795793236504      1.28212801631098      0.06600311232229
  C   -1.42524566872842      2.02473855978895     -0.16349346689686
  C   -2.77564919575837      1.65452929164290     -0.28240048407448
  N   -3.64863998452401      2.68307096450920     -0.55540124210456
  H   -3.27008681988848      3.50048021758815     -0.99950176025041
  H   -4.56834126979985      2.43777633024130     -0.87551732178086
  C   -3.33701441932266      0.40948523555777     -0.03039467265388
  C   -2.69206693131372     -0.77838793769456      0.30512294172848
  N   -3.49021500933911     -1.81840749535507      0.66766463349306
  H   -4.47742166738305     -1.75417663239163      0.50465052813612
  H   -3.10619093704519     -2.74669011228668      0.72072597760468
  C   -1.28975724554398     -1.03738126488283      0.25654927753137
  C   -0.92655487219314     -2.39711283598486      0.39406526706574
  N   -0.75117576644142     -3.53893667592531      0.54012314335952
  C   -0.20567138551531     -0.17452606297744     -0.05432923140635
  N   0.87564170730593     -0.82178361547445     -0.46320250201312
  C   2.17423619353293     -0.59682658080649     -0.44247352740621
  N   2.90824352718706     -1.49441127784894     -1.14011744661336
  H   3.91079981593916     -1.48521219398910     -1.07565594339592
  H   2.45702264439821     -2.35498308683916     -1.39360437926450
  H   -4.41991317566236      0.36623317021126     -0.04260604745473
  H   -1.26022406326242      3.09583819640677     -0.19719939894547
  H   0.66483908579304      3.02478382493231      0.77440409693964
  H   2.83076976261071      2.39105427751666      1.04859851058851
