28
Coordinates from ORCA-job ./opt_b97-3c_parallel
  N   -4.69387813311933     -0.39162082920779      2.23595928772028
  C   -3.87826810952483     -0.09830472948096      1.46386649120718
  C   -2.86533667309199      0.24013841608263      0.52781382263100
  C   -2.97981479360912      1.43568385611952     -0.13304986152692
  N   -2.30466508398420      1.78085323376895     -1.26387553340864
  C   -1.07791230649642      1.49663718849419     -1.48129122851932
  C   -0.15458193958304      0.86293723865441     -0.51927482864171
  C   0.99855798806343      1.48091976557637     -0.14664413728972
  N   1.25257165157082      2.77326194445303     -0.55112913706039
  H   2.03511061884400      3.23699530532984     -0.12084028620336
  H   0.45705240678232      3.37697406793562     -0.66542823737914
  C   2.03592075141194      0.82646034561052      0.64109901176510
  C   2.91084737030773      1.67413154533096      1.36429207732234
  N   3.60787195631413      2.41498338991385      1.92666123289386
  C   2.31211407885374     -0.51088351370374      0.63882902711939
  C   1.64970355623649     -1.57269328143744     -0.03565472658536
  C   2.38175512739856     -2.76754420280699     -0.22633946503730
  N   2.92018688333811     -3.77845576225658     -0.42616262776173
  C   0.32375476532409     -1.58681048000703     -0.46134475117923
  N   -0.18965002257738     -2.65264856993534     -1.09259681400474
  H   0.38563476773226     -3.44134112544233     -1.34106068994945
  H   -1.13798871357548     -2.63808863733447     -1.41745066171384
  C   -0.59561807258299     -0.47799896949394     -0.16598402725352
  C   -1.84614465297137     -0.74708058888894      0.28973416521154
  H   -2.09410634933847     -1.76573157113622      0.55889801139044
  H   3.20185658152739     -0.80820442295633      1.17765270219412
  H   -0.69483367903655      1.70636593807802     -2.47978332351634
  H   -3.78392003890693      2.10704339754433      0.13799342527510
