30
Coordinates from ORCA-job ./opt_b97-3c_parallel
  N   -4.97356468259904     -1.41077575993423     -1.11642880618609
  C   -4.01335417899369     -0.95120747066520     -0.65058594524624
  C   -2.85643094367549     -0.39087730299346     -0.04785725246656
  C   -3.07308981987112      0.38080478553505      1.16664394133328
  C   -2.28138700370527      1.35924873965332      1.64135770064674
  C   -1.11930743018034      1.90002051002452      0.98382773310284
  C   -0.27210233814717      1.23221400734635      0.17639608753053
  C   0.72147400928835      1.98202571852261     -0.61595120661824
  N   0.26298622020579      3.14152322069313     -1.17772424376549
  H   -0.72888903825346      3.21410115985473     -1.31994200891778
  H   0.82427623506325      3.58149397285872     -1.88759828211062
  C   2.02462776814545      1.61360885167195     -0.74767392951801
  C   2.67526370097798      0.50164575773920     -0.13588926796757
  N   4.03179779940331      0.62022453310135     -0.03094167896688
  H   4.41864933965985      1.54324526429682      0.04476012923905
  H   4.54127291517560     -0.09823128563227      0.45599719590634
  C   2.06335092713625     -0.69115023337634      0.24902581954644
  C   2.88705385615567     -1.66334915502911      0.84510941389280
  N   3.59860715777626     -2.45267223574773      1.32527138216814
  C   0.69516789872806     -1.07183440132246     -0.03900193748014
  N   0.46717396028768     -2.41978447233794     -0.24581938555013
  H   -0.38915247548696     -2.79053604066124      0.12883832678089
  H   1.25038957952713     -3.03432416905876     -0.10232525801398
  C   -0.36703154572085     -0.20877111961827     -0.10841423069989
  C   -1.63921055959424     -0.68499051803580     -0.58555606478239
  H   -1.62080004252195     -1.36821766539494     -1.43128291625874
  H   2.67223112581212      2.26736333587990     -1.32150276161839
  H   -0.93928488853295      2.95791996818946      1.14220647711426
  H   -2.61361397631609      1.87743243443429      2.53323272417447
  H   -3.99227276604398      0.16536670380735      1.69718137663173
