18
Coordinates from ORCA-job ./opt_b97-3c_parallel
  C   2.37076346307783      0.97677832289034      0.51097189193438
  N   2.96675706896636      0.00917688954277     -0.23618531406928
  C   2.29734530230250     -0.95828256831303     -0.79523296476463
  N   1.06026553201007     -1.41820213106511     -0.52865608058331
  C   0.03364300998639     -0.73662845397699     -0.11681409047727
  C   -1.07360108142065     -1.39038676758205      0.52312685013821
  C   -2.37078212837147     -0.97666012215899      0.51090649965884
  N   -2.96668321110250     -0.00923392093474     -0.23655174816359
  C   -2.29720008701840      0.95808991207106     -0.79574946767949
  N   -1.06015182133861      1.41807082396649     -0.52912638132013
  C   -0.03358061794567      0.73659428784050     -0.11699299437682
  C   1.07358122394648      1.39050698655722      0.52293359614538
  H   0.82900562246657      2.29953833887270      1.05860900855590
  H   -2.85001367908518      1.57247806813601     -1.49971888705558
  H   -3.07464327668829     -1.56461105009599      1.09019095693821
  H   -0.82909375727900     -2.29929317483873      1.05904460105307
  H   2.85024833225878     -1.57283780210101     -1.49898612636119
  H   3.07455207963467      1.56486558508950      1.09020506622750
