25
Coordinates from ORCA-job ./opt_b97-3c_parallel
  N   -2.32882988656573     -2.31905374813459      1.22456641794589
  C   -1.84201041965357     -1.29026418177235      0.46096074187811
  N   -0.53163757671561     -1.42040527814026      0.18764503754341
  C   0.31212029664006     -0.48035331224086     -0.15174062198272
  N   1.45255594697047     -0.86355688371088     -0.73944767075143
  C   2.66995018568767     -0.45122920635698     -0.48734109517194
  C   3.06967282349674      0.46029868632617      0.53037765049053
  C   2.25848409874477      1.44065364034485      1.03920107827985
  C   0.92694149911498      1.74257663256907      0.73251296821334
  C   0.01693606384027      0.95681704002338      0.04242424963175
  N   -1.10980038681547      1.50046111036176     -0.43695044592011
  C   -2.28661002581276      0.91034269145588     -0.56001541777406
  N   -3.20055765548631      1.62506996308900     -1.29078029074865
  H   -3.00056077898330      2.60513376769332     -1.38896930827076
  H   -4.17091467446760      1.38189630467827     -1.20971299353364
  C   -2.70723203349205     -0.30890282130016      0.00530859747992
  H   -3.77241007615630     -0.49437051946339      0.07600644782214
  H   0.55026328687275      2.70340733409131      1.05994016096935
  H   2.73930107375966      2.13435014837357      1.72033768394988
  H   4.11567388566728      0.46915906257360      0.81058971891436
  N   3.64627844965184     -0.95838251053678     -1.30375472426667
  H   3.41609391355635     -1.80392579354853     -1.79516831572651
  H   4.60370302943393     -0.85836613336067     -1.02192133237248
  H   -3.32334740763857     -2.45287966989866      1.26014830486861
  H   -1.77747488364660     -3.15925013451702      1.20779352853053
