28
Coordinates from ORCA-job ./opt_b97-3c_parallel
  N   -5.03418476112582     -1.37708938431847      1.03882809716299
  C   -3.95988892668003     -1.05347958149881      0.74249056255489
  C   -2.65269638331698     -0.63085065362437      0.37943479872317
  C   -1.60990391003083     -1.47894053761594      0.64731986311912
  C   -0.23686873645961     -1.32941909680363      0.31263561756150
  C   0.52336556067765     -2.52661299307192      0.43218142282534
  N   1.11891732443443     -3.50972086446427      0.59126749890083
  C   0.45358227892809     -0.16477526739042      0.00219698358941
  C   -0.14469892834144      1.15986903265314      0.12719933382994
  C   0.47537867305945      2.21980061768218      0.69717658129035
  C   1.78325728656004      2.26666797302420      1.25250545417016
  C   2.84527303189611      1.48813060194703      0.95259815754528
  C   2.90408881490292      0.46573100080894     -0.05601423254183
  C   1.79930090234359     -0.24751678888396     -0.52953050532764
  C   2.04565760010456     -1.18474848594476     -1.55230653613038
  N   2.32547239276435     -1.90429110055113     -2.42305511805573
  N   4.13378502197496      0.16706710283127     -0.51512735949528
  H   4.27108648704454     -0.54981305540479     -1.20746642648499
  H   4.93170938969969      0.70651791099766     -0.23913538351989
  H   3.78757514055383      1.72389907353788      1.43171731110942
  H   1.96341407156931      3.07620189725960      1.94917682040835
  H   -0.09625470243481      3.13700408578135      0.76665110904949
  C   -1.45868887169299      1.36112742326123     -0.51770257478912
  C   -1.55486645412876      2.50750366363209     -1.34625635324140
  N   -1.60911837546894      3.46232548572108     -2.00556297568998
  C   -2.56441951578515      0.59373250353293     -0.34986799667743
  H   -3.48035337703732      0.94298349290774     -0.80722765308257
  H   -1.86706769021129     -2.42465494380629      1.10358799829580
