29
Coordinates from ORCA-job ./opt_b97-3c_parallel
  N   -5.44683068295759     -0.97196330233523     -0.64472812278346
  C   -4.32023942533198     -0.81946472354535     -0.40736952340292
  C   -2.94215762958306     -0.66740181012335     -0.10544073363493
  C   -2.28498123343586      0.41337640162708     -0.63012022099821
  C   -0.94569537954160      0.82822179809986     -0.41429509013398
  C   -0.66830658808611      2.12881475104894     -0.92137922496027
  N   -0.47355160728807      3.16600987814210     -1.40546584078739
  C   0.13355318840700      0.12334195789215      0.12809160642124
  C   0.10257813042745     -1.31832941177528      0.35270286702994
  C   1.14531198199192     -2.15625232921387      0.12486505237569
  C   2.43803404278085     -1.87334438530066     -0.42588325653877
  C   3.08048707006922     -0.66326437368005     -0.38837696181915
  C   2.63953255771938      0.51946430167923      0.25331848329559
  C   1.30186037180899      0.85286563653462      0.54938517195879
  C   1.10254884941500      2.06471686891414      1.23748304727101
  N   1.02675779718660      3.05242937682731      1.85011323416952
  N   3.59350020933984      1.43612804943534      0.52335388471558
  H   4.56401081059585      1.21513903603287      0.41359391422123
  H   3.35655496432169      2.33024762521061      0.91747404751100
  H   4.08414017783481     -0.62728122546208     -0.79617139819009
  N   3.09735324759448     -2.96782842015693     -0.92300750008039
  H   3.93257664640809     -2.80986562902900     -1.45875118669259
  H   2.53947395152731     -3.73596608038542     -1.25165543116457
  H   0.96798514982436     -3.20218154182011      0.34749953739878
  C   -1.07079274147050     -1.88437677629495      1.00421083788863
  C   -2.37455726105641     -1.62661240639900      0.79336374662284
  H   -3.08515171511045     -2.23166197033639      1.34165728464288
  H   -0.84303831423331     -2.64901416753395      1.73770399780851
  H   -2.87522347065778      1.08693421704737     -1.23561930524433
