27
Coordinates from ORCA-job ./opt_b97-3c_parallel
  N   -3.61400870485722     -2.57116936528047     -0.98780393345549
  C   -2.85197484009763     -1.77481820092207     -0.60868790986676
  C   -1.97285820957520     -0.77023185171759     -0.16291911946085
  C   -0.73157151320939     -1.19012097918841      0.41986486876236
  C   0.41544843019169     -0.48914706418379      0.53151834684075
  C   1.55218320829629     -1.06015651115497      1.26632913370179
  N   2.77166942626366     -1.11040415768624      0.88731943028148
  C   3.16824755016593     -0.60328009678598     -0.34724822731258
  N   2.86447381968256      0.53849215739181     -0.88940992721850
  C   1.80626516860312      1.29425586450035     -0.48889919926358
  C   0.64487525560035      0.89401908902366      0.10176005359238
  C   -0.38603838525382      1.88393026960528      0.42126784759680
  N   0.08041322884701      3.11876595172350      0.79339574767797
  H   0.99192882232305      3.14857192326674      1.21503066943936
  H   -0.57882463000157      3.77541335549830      1.17525652446271
  C   -1.73141914112135      1.68662496217263      0.29734420025963
  C   -2.43668072537538      0.54439286583713     -0.18921758165768
  N   -3.72718951271290      0.78947289212703     -0.56979710163824
  H   -4.24412825735748      0.04141865505334     -1.00154761376685
  H   -3.94890503295434      1.70861640109973     -0.90635858675980
  H   -2.36673574355545      2.52969950199368      0.54814430038562
  H   1.88731745365134      2.33273762487291     -0.78917972420057
  N   4.07909807626903     -1.39983395508970     -0.96442087315715
  H   4.57418614513034     -0.99386603534376     -1.73896363465529
  H   4.57523482924513     -2.06015254063076     -0.39366268369436
  H   1.35348686836411     -1.46589101063506      2.25914583119678
  H   -0.71747552626040     -2.21248273594381      0.78234452670821
