26
Coordinates from ORCA-job ./opt_b97-3c_parallel
  N   -0.28450555327067     -4.28945460629905     -0.10739380907192
  C   0.05776535301503     -3.17976873244094     -0.10599695809279
  C   0.53612816886906     -1.84432533807731     -0.14940560113622
  C   1.83901360183826     -1.67266012712836     -0.68671099217769
  C   2.68322970207755     -0.61472047843987     -0.61340061501513
  C   2.47655614686507      0.63555752361984      0.04199803603411
  C   1.23455835027787      1.15477538642911      0.42543951185928
  C   1.24571468577484      2.45349366934263      0.96705805530946
  N   1.31725093734186      3.52961291528586      1.40832864234716
  C   -0.07017139514412      0.57752859790509      0.16369216789822
  C   -1.10395724386088      1.40782590491972     -0.17907122888224
  C   -2.48764076084717      1.08470153873655     -0.36544040331720
  N   -3.19434571787542      0.12348777853564      0.21056446327303
  C   -2.60665664299571     -0.76712736546791      1.01752940815687
  N   -1.40006973539206     -1.24555979613113      1.03077591720032
  C   -0.31435368321572     -0.85602069734648      0.33446651497184
  H   -3.27653638782192     -1.21293338900787      1.74713968674206
  N   -3.19367025811018      1.91582642953044     -1.16039758606840
  H   -2.78471498187187      2.73717385068759     -1.56328626678634
  H   -4.19082606871978      1.80137865363910     -1.19744353076966
  H   -0.83707436557957      2.43415438445789     -0.39843601861521
  N   3.58822263816126      1.39084316270961      0.21650737081362
  H   4.49249160248059      0.96917566877044      0.12076860323978
  H   3.54167382988150      2.25268777720828      0.73245875732512
  H   3.66567325412507     -0.75208503682593     -1.04677938089144
  H   2.24114129439765     -2.55636755021110     -1.16514082974746
