27
Coordinates from ORCA-job ./opt_b97-3c_parallel
  N   2.37651642286706      2.17943198166268     -2.23200939333980
  C   2.27270784785263      1.35373535595635     -1.42111119054901
  C   2.16238413712709      0.28723000583301     -0.49444299969686
  C   3.36012663801716     -0.32538327857879     -0.13758697361053
  N   3.61881225605447     -1.32117041005427      0.69971419619278
  C   2.69730168186603     -2.18700380169884      1.10014214162925
  C   1.37596275245444     -2.34953901447597      0.71243157952157
  C   0.50677623130018     -1.45754136911075      0.07243293619353
  N   -0.62165465384369     -1.96072067197645     -0.42294515905630
  C   -1.81190251297648     -1.42177766418753     -0.54154030991110
  C   -2.30133145569605     -0.24984275685727      0.13342523917779
  C   -3.68997727201091     -0.13185331432000      0.30095194602447
  N   -4.84197286367598     -0.02167294230667      0.43823617168341
  C   -1.50491352358778      0.84256604894446      0.50232537442693
  C   -0.08164114688001      0.96498240608748      0.24463934570379
  C   0.42314588194786      2.27475955969442      0.42379856530414
  N   0.74630664385607      3.36526784113851      0.66420102552359
  C   0.83433897325262     -0.04208246971950     -0.02545046616482
  N   -2.09982603723043      1.89901186048723      1.07520213141300
  H   -3.09922110037699      1.92791257330753      1.18186518015938
  H   -1.58434143626458      2.74199243779925      1.26260757884724
  N   -2.68150550021006     -2.09937439893293     -1.31268450233536
  H   -2.40929879692848     -3.00050544544811     -1.66099987310299
  H   -3.63237114604891     -1.79998331770414     -1.42847828218171
  H   0.91182381226974     -3.29172973457796      0.97803696174352
  H   3.07940156148684     -2.94562491553303      1.77723965902519
  H   4.24582084509669      0.12548881277005     -0.57406218003136
