28
Coordinates from ORCA-job ./opt_b97-3c_parallel
  N   3.93440534113928      1.92119650903127      1.06792271561693
  C   3.01118280693889      1.33899713478931      0.65975852949476
  C   1.93420265607375      0.57994647991292      0.16196736513565
  C   0.81655975668933      1.30108360789490     -0.38222967093083
  C   -0.44581116764165      0.85689019446731     -0.51994177901312
  C   -1.47845943172742      1.65768853764085     -1.21311808515244
  N   -2.58445233918748      2.04122433372671     -0.69913178400255
  C   -2.99243689211127      1.65367512482898      0.55002596992150
  C   -2.82537417107163      0.43948792959475      1.12580955477716
  C   -2.03112333105649     -0.65538462674036      0.63796544045850
  N   -2.46530650473101     -1.92786003064972      1.00491585114528
  H   -1.74907096957378     -2.63485349697755      1.04920534285401
  H   -3.05754369109969     -1.94315740870267      1.81817497740004
  C   -0.91905072199406     -0.46904869434341     -0.14354426836087
  C   -0.14156730174072     -1.59263799809069     -0.68787326216819
  N   -0.85771582768243     -2.57011244252343     -1.33578083214296
  H   -1.80215688298926     -2.34418062660380     -1.59150512512069
  H   -0.37382071333841     -3.16412212195058     -1.98660272072014
  C   1.20276637375682     -1.71957283277509     -0.51437816191131
  C   2.10685372558176     -0.80149639856884      0.10807314207900
  N   3.25057651316735     -1.35865090900902      0.61572821190087
  H   3.48004352234686     -2.29656892525489      0.34445417031440
  H   4.03900592436816     -0.75752591254187      0.79073800847937
  H   1.65572771413654     -2.63980836791019     -0.87238198636355
  H   -3.41814409710031      0.24267807370243      2.01324532917415
  H   -3.64106654146516      2.36930205801867      1.04089887137782
  H   -1.30871602425109      1.92082562053945     -2.25673081227629
  H   1.02488906666373      2.31791289619252     -0.69711038146587
