36
Coordinates from ORCA-job ./opt_b97-3c_parallel
  N   -3.95280739713152     -1.03560095070798      2.46365202673113
  C   -3.23524374283141     -0.65133682387082      1.62739669536694
  C   -2.39463281238890     -0.17498201159405      0.60620413483286
  C   -1.39897226808338     -1.09548617393351      0.08867408173139
  N   -1.73979021087428     -2.45640570747493      0.12938922352792
  H   -0.98135220170115     -3.05357860545277      0.42179572225293
  H   -2.56678394986879     -2.65238960258532      0.67095643491702
  C   -0.22294131530603     -0.69817359129097     -0.46506394167884
  C   0.63553905514912     -1.62636934795707     -1.20844962679180
  N   0.03948272795857     -2.34599467447166     -2.20401709011328
  H   -0.95176039647715     -2.49307168616174     -2.10752929526477
  H   0.54263361791450     -3.12581259929262     -2.59340403284078
  C   1.97721834425347     -1.74174888375462     -0.96868637774897
  C   2.71503457810738     -1.06409917892331      0.04037778222326
  N   3.88877073292361     -1.67288896993518      0.40324232034050
  H   4.40068658722939     -1.28580172567723      1.17855702553881
  H   3.92741425531471     -2.67385634222639      0.33558589932712
  C   2.39591611733768      0.17581648162498      0.60414375958070
  C   3.23745882590342      0.65146484653381      1.62490034345158
  N   3.95578707821723      1.03514558383035      2.46076642665014
  C   1.39978995974045      1.09668102707742      0.08815413708031
  N   1.74064967967733      2.45757245416036      0.12949750325977
  H   2.56814697973728      2.65317610824140      0.67043397925401
  H   0.98248597061982      3.05454242975833      0.42303073366890
  C   0.22325095920012      0.69975762694263     -0.46478317589611
  C   -0.63590519529171      1.62847045790660     -1.20673730871787
  N   -0.04075612445941      2.34880339528266     -2.20233707000374
  H   0.95057085576321      2.49583032014229     -2.10663398904890
  H   -0.54426793254970      3.12889141640669     -2.59071561520825
  C   -1.97736887365417      1.74366838450496     -0.96568196032584
  C   -2.71426849459074      1.06531828909601      0.04358013334023
  N   -3.88768064395770      1.67384983385546      0.40792576093140
  H   -4.39888819322885      1.28622475841518      1.18343844295174
  H   -3.92638740856492      2.67486345673739      0.34100034464047
  H   -2.53739311747715      2.46977052737545     -1.54562772301209
  H   2.53671573598816     -2.46744551798156     -1.54964766004821
