27
Coordinates from ORCA-job ./opt_b97-3c_parallel
  N   -2.13518357858025     -2.58064335438275      1.46260972993575
  C   -1.78438417728211     -1.60846016885848      0.92093770237370
  C   -1.44254590203769     -0.40596015588464      0.27561858147932
  C   -2.50496718624126      0.46015587272290      0.00543911612360
  C   -2.38115252942405      1.77048339584699     -0.53146084482572
  C   -1.24740551657094      2.52546977420702     -0.53569619714199
  C   0.06760167067525      2.19746511725405     -0.17395588045448
  C   0.66935165042115      0.96207130332177     -0.00911497341341
  C   2.03584720822686      0.97679981275478      0.42049377780551
  C   3.07484626675456      0.10959355176898      0.19847885487445
  C   3.01207757907477     -1.11809926667006     -0.53142138688501
  C   1.88365758630137     -1.78078033963057     -0.87971717397136
  C   0.53209367534027     -1.45913975113403     -0.62125693241285
  C   -0.04891033782844     -0.29992016259963     -0.17294813589234
  H   -0.15491797170518     -2.27595997595893     -0.80112745512908
  H   2.03010713911003     -2.73092422040339     -1.38043001191081
  H   3.96219225051423     -1.57120936085394     -0.78761779276855
  N   4.34351164186045      0.47183536903874      0.61566711330462
  H   4.39426887269112      1.20936908569440      1.29769865462365
  H   4.97642244743659     -0.28375041108974      0.81413917835637
  H   2.30931241583073      1.88957003542437      0.94128893369015
  H   0.74000182737173      3.04408498608876     -0.10616772978674
  H   -1.38120179873305      3.55646571333296     -0.84557360465933
  H   -3.30187295680221      2.24509098581893     -0.84695591670809
  N   -3.78189696946766      0.03883164651220      0.23728094322398
  H   -3.92436528920656     -0.81900404386751      0.74404980695628
  H   -4.49383887793072      0.73560796414551      0.35812606331319
