23
Coordinates from ORCA-job ./opt_b97-3c_parallel
  N   3.21241535202994      1.80807428958298     -1.73953368036341
  C   2.65502770227177      1.00488785473955     -1.11271983438727
  C   1.97923182213418      0.00803102267607     -0.36778366400285
  C   2.47536027569774     -1.28453725064195     -0.42689628904288
  N   2.15408235806970     -2.36055957501540      0.29926626253388
  C   1.05212852004354     -2.42859891212728      1.01514061815394
  N   -0.07941482907009     -1.74859048591379      0.89218584460668
  C   -0.28340144715765     -0.54663509819569      0.41230976650300
  C   0.79707091496448      0.45042592586891      0.34623121506047
  N   0.71144056172448      1.68033470333373      0.73991715431836
  C   -0.40324496923114      2.37662661152530      1.02063340722620
  C   -1.66205193063731      2.19643814498975      0.53797640033354
  C   -2.16860059348552      1.05042237386541     -0.14377911745531
  C   -1.55489861921044     -0.21991702340684     -0.14566075284573
  C   -2.30976868953674     -1.29243938788098     -0.66256442225460
  N   -3.00213196692186     -2.10709668787043     -1.12064861543227
  N   -3.38019652214934      1.17981509398774     -0.71323193112204
  H   -3.87440095750635      2.05078439501382     -0.67399369865303
  H   -3.85593700961940      0.38933317485476     -1.11430535859829
  H   -2.36578461450046      3.00241054687850      0.70365632337654
  H   -0.22310488057292      3.26107026850041      1.62118170152360
  H   1.01357220987534     -3.23325452281063      1.74214253813297
  H   3.31950824718857     -1.43371557525059     -1.09096434191450
