31
Coordinates from ORCA-job ./opt_b97-3c_parallel
  N   4.01904147103958      2.11460874391856     -1.84479571949458
  C   3.36857757033018      1.34297445352363     -1.26587395735680
  C   2.53867404376563      0.45073540209824     -0.54754308427949
  C   1.22672264161571      0.94258568119267     -0.15726308724391
  N   1.08746849414986      2.32361926695538     -0.02827704433708
  H   0.19247677663708      2.68153468321456     -0.32399766206709
  H   1.83888403217234      2.85625947253430     -0.43834136263649
  C   0.18663323177853      0.10679861545725      0.12173189056730
  C   -1.06719080980886      0.61572109523954      0.69751311878968
  N   -0.95798581674304      1.30308528272009      1.86051790632071
  H   -1.76667955312998      1.76971834919666      2.23945022362989
  H   -0.06873434366990      1.72852306684582      2.05985296169038
  C   -2.29511964408845      0.37200811861752      0.11048737420225
  C   -3.41587732981789      0.99394271636017      0.69628934466647
  N   -4.31894402340213      1.53760519671584      1.19289010507172
  C   -2.53609830183993     -0.46803967079676     -1.05871129198937
  C   -1.80835276199978     -1.57906132871417     -1.38770564943007
  C   -0.66008510385720     -2.07346483214624     -0.72105847821478
  C   0.24375488102923     -1.34509806171870     -0.02359311458353
  C   1.32802692105061     -1.97928653130557      0.74846169143472
  N   2.59940913371050     -1.73648856199323      0.58830888543445
  C   3.08240763811817     -0.76622842721587     -0.20146411158546
  H   4.09485831238705     -0.94806210033415     -0.54558222699678
  N   0.97103847526197     -2.90135917233725      1.66291987972640
  H   0.00352749704221     -3.04125604397282      1.88243393294811
  H   1.67337211075508     -3.28814495442861      2.27053086630266
  H   -0.48045594574419     -3.14090027606200     -0.80464038830770
  H   -2.19085647092688     -2.18506921628865     -2.20157521860257
  N   -3.63046384917559     -0.11127006793401     -1.82090332484752
  H   -4.02333829663100     -0.83676090775750     -2.39576069849926
  H   -4.33128624656393      0.46076240213899     -1.37953233381749
