31
Coordinates from ORCA-job ./opt_b97-3c_parallel
  N   -4.54266392984200     -0.99096489468544      2.04278838537892
  C   -3.67314812163054     -0.67333153882596      1.33564618619932
  C   -2.65441264905099     -0.23719366349221      0.46525316034506
  C   -2.81794877857118      1.00828228533353     -0.12949539690684
  N   -2.09651867514762      1.50683897261794     -1.19280607386291
  C   -0.82455117218320      1.34583132487313     -1.32545644841867
  C   0.08142367341540      0.55327694597767     -0.52452132890353
  C   1.29918092961084      1.08767087614932     -0.19536599339800
  N   1.49705090635384      2.43919498662632     -0.41399718146428
  H   0.73120371204974      3.04965274438777     -0.18968455655583
  H   2.38651575629799      2.81473190436168     -0.13168481569864
  C   2.41581696592818      0.36377682454349      0.36926673141989
  C   3.35421508446091      1.09945795240948      1.11312056843471
  N   4.15794531280738      1.68934086632655      1.71912591392428
  C   2.72098682653320     -0.97516771614771      0.10663935521593
  N   3.94673650956292     -1.45028590343434      0.46774314220173
  H   4.05368193773505     -2.43937728130788      0.59863250019701
  H   4.54391740557038     -0.87165974707417      1.03438247220486
  C   1.90462415545748     -1.90309912838477     -0.59638403798376
  C   0.54315091844321     -1.90505410439429     -0.72726618153112
  N   -0.07218492401156     -3.00600629549219     -1.25359642567480
  H   -0.97242847385835     -2.87419786057867     -1.67883292488922
  H   0.49849640475896     -3.71985183027451     -1.67309597606605
  C   -0.34747094786996     -0.83248794196558     -0.27897322317830
  C   -1.58570534150077     -1.14904954061003      0.16918470438030
  H   -1.80831062963158     -2.19230589322753      0.35413674064116
  H   2.43193067562840     -2.76884667891920     -0.98177209328351
  H   -0.38450997183473      1.87556365473014     -2.17207055492174
  N   -3.80484430199947      1.85348807794659      0.25342588706694
  H   -4.06148400149105      2.56822389344766     -0.40342672639495
  H   -4.51343759699067      1.53343682968396      0.89145267401986
