25
Coordinates from ORCA-job ./opt_b97-3c_parallel
  N   -0.61443278146479     -2.85905919466296     -0.17644788417181
  C   -0.83186936175492     -1.51374412049743      0.12810846785082
  C   -2.11280528629884     -1.19438991857076      0.69123550309459
  C   -2.76814766162000     -0.01340256017397      0.57191557760362
  C   -2.35023402840007      1.18720584718735     -0.05886243467745
  C   -1.07425498658667      1.58617083113406     -0.33217321602580
  C   0.11201682732296      0.82787838198804      0.09394077339538
  C   1.18814145575006      1.47319186658827      0.62912388357972
  C   2.40921784647702      0.85657778917756      1.02977755595367
  C   2.95033839692436     -0.28044040441841      0.52093538363535
  N   2.54402592625872     -0.91733109787084     -0.62866217339255
  C   1.31610422074452     -1.00356616197025     -0.97195164664004
  C   0.13321514881845     -0.60039204989610     -0.17733225459858
  H   1.11649796064806     -1.39168845721262     -1.97204382477153
  H   3.90098237967113     -0.62919892467363      0.90595113228088
  H   3.00395351513943      1.39135892716252      1.76209337726698
  H   1.08702471106357      2.53185200223790      0.83660373826784
  N   -0.82493211586639      2.80848357160809     -0.91745957129751
  H   -1.57420159133053      3.21827680039090     -1.45019847899627
  H   0.07811966658241      2.90915199583515     -1.34796149506949
  H   -3.14119560147617      1.89049772871406     -0.29853394221055
  H   -3.78073565038846      0.00727528417372      0.96006185605416
  H   -2.65082277134512     -2.01290677345724      1.15707826364094
  H   -1.25964837996431     -3.49581470613933      0.25880323349954
  H   0.33732731409471     -3.17218979364932     -0.07610177937068
