32
Coordinates from ORCA-job ./opt_b97-3c_parallel
  N   -4.26678834166955     -0.66561324887239     -1.25957109975314
  C   -3.25740828996477     -0.36815623505200     -0.75733559001344
  C   -2.02519742121370     -0.05818497829173     -0.15284518372468
  C   -2.00308486957093      1.04270001185943      0.80309048458703
  N   -3.19397267670967      1.25159383143686      1.48084165730379
  H   -3.34080234376813      2.18801735018791      1.81780860710673
  H   -4.02092341830814      0.86650576653487      1.05489845459577
  C   -0.93441162172059      1.85068020372287      1.05322632962211
  C   0.35359872598845      1.80362966902689      0.43001482750188
  N   0.98642217413251      3.04481844777245      0.22599476748094
  H   1.97875342782957      3.03162292937561      0.40878058466971
  H   0.54730938667134      3.80118530667308      0.72431417669123
  C   0.94704321228697      0.66137149250990     -0.00519731705215
  C   2.19543226030699      0.67203175290723     -0.80293299053535
  N   3.29991648459948      0.08413529571242     -0.45259530655585
  C   3.37271506055106     -0.76257895713789      0.60790489598202
  C   2.42932774431630     -1.58797274602938      1.13522787774988
  C   1.06236660747869     -1.70429065678325      0.71972654234111
  N   0.46812692582667     -2.96807627469052      0.86775481247146
  H   1.00404167700851     -3.59390895237737      1.44605623429568
  H   -0.49310662763216     -2.94022842960899      1.17325550158305
  C   0.37175230079514     -0.66891959765823      0.15367446182942
  C   -0.94235594916628     -0.86165829345699     -0.47020121460270
  N   -1.03742329452626     -1.83512062195736     -1.40394964947808
  H   -0.33240867499825     -2.55134461469956     -1.39962082724930
  H   -1.93671861437612     -2.08633418720934     -1.78154616112695
  H   2.77171654331192     -2.28966251285390      1.88859021970321
  H   4.37470268958527     -0.84559885381018      1.01754695041009
  N   2.14940871619470      1.31256802533015     -1.99914577248911
  H   1.47336369469734      2.05046514310592     -2.09869915058436
  H   3.02637159526605      1.43577445445293     -2.47815455650926
  H   -1.09608484582114      2.66294192338132      1.75645283434932
