29
Coordinates from ORCA-job ./opt_b97-3c_parallel
  N   4.46162194916529      0.53927144613322     -2.38166164058668
  C   3.61539989892920      0.20799619621572     -1.65724906032389
  C   2.57891753288880     -0.17085755821638     -0.76731725649801
  C   2.55085794761333     -1.47425770059541     -0.32657520219636
  C   1.70095126470298     -2.06486147599716      0.62936862913898
  C   0.46823170207281     -1.61981999133047      1.03644207918406
  N   -0.17529141556710     -2.16011841851183      2.10781843557861
  H   0.22162441386653     -2.97383240799466      2.54654711883720
  H   -1.18244731076444     -2.12215385830244      2.10421625909335
  C   -0.23277026010268     -0.51977506439346      0.34745505257333
  C   -1.50312252811153     -0.66348640973941     -0.12617146801708
  N   -2.13948414776056     -1.90683278739681     -0.05724651880917
  H   -3.00121564329676     -1.95335251302789     -0.57940331420518
  H   -1.54168798174547     -2.68202010378155     -0.30236343063745
  C   -2.26264893794791      0.43865554937268     -0.68943965654141
  C   -3.32087122411976      0.10072819454674     -1.56615990872336
  N   -4.18768571013000     -0.22605753189123     -2.26959168971653
  C   -2.10383578942268      1.77418422970885     -0.39092024668833
  N   -1.31463576987862      2.35562090184679      0.52515854613421
  C   -0.18661827719313      1.85586754908504      0.93376294392491
  N   0.39973627265074      2.37277030434863      2.02664209303416
  H   1.30031421734766      2.05151521255107      2.32497024174315
  H   -0.06553764694366      3.09619061152830      2.54731136302887
  C   0.51490123506382      0.72556283684546      0.27137011461861
  C   1.74047790492626      0.88392522364901     -0.26575853162215
  H   2.15335834369169      1.88538556912006     -0.30931415590775
  H   -2.77408960088698      2.46179648109343     -0.89358367284128
  H   2.06684163615073     -2.98199947167163      1.07922264367626
  H   3.34483994160418     -2.11167936708907     -0.69585395456326
