31
Coordinates from ORCA-job ./opt_b97-3c_parallel
  N   -4.87059400151423     -1.34919066956745     -0.61994787908024
  C   -3.78369918065286     -1.00550376326635     -0.37482429257144
  C   -2.48224335687673     -0.57560363924037     -0.07510265173775
  C   -2.12008188932271      0.72929228762209     -0.46136088632521
  N   -3.02077198891321      1.45225927545649     -1.15575929863491
  H   -2.85343844294790      2.42593041190583     -1.33968166113235
  H   -3.95750888406071      1.11052003580478     -1.28065809316285
  C   -0.89499418378707      1.38656531311198     -0.11655286630442
  C   -0.88601838104440      2.78999534809573     -0.28266254501945
  N   -0.96793530839275      3.93576888823314     -0.46786012955171
  C   0.32735923675761      0.82994448597627      0.30561070640220
  N   1.24722364402532      1.68073604713066      0.73075998276598
  C   2.56516431140603      1.61726178870194      0.64670258882706
  N   3.21131251810709      2.57715929188543      1.36248106749884
  H   2.66722570643664      3.37173449595479      1.64956695596824
  H   4.19614805495536      2.71691688383543      1.23705085621338
  C   3.33468821902003      0.74067036881978     -0.13877819460779
  C   2.95617814827250     -0.52282255375999     -0.54968735505528
  N   3.82805394878889     -1.24363527191029     -1.30411216762310
  H   4.78193772060814     -0.93876158043271     -1.36388118149601
  H   3.67577177452050     -2.23031557386421     -1.42546440264647
  C   1.72641572581086     -1.18376384423190     -0.19058060486046
  C   1.71104588417828     -2.58723669288824     -0.35267731485310
  N   1.79041400240425     -3.73386813095307     -0.53372217780532
  C   0.54097070686462     -0.62252805104832      0.29819943321763
  N   -0.36251429320074     -1.46397078807319      0.79257980212708
  C   -1.67220412581443     -1.43499484404953      0.73640559442588
  N   -2.29911005107823     -2.37063513041548      1.48622125903360
  H   -3.28783116738012     -2.51898163954809      1.39276810276018
  H   -1.74066936879244     -3.13595840500856      1.81982077652720
  H   4.34299329452693      1.05432895198941     -0.38000681753819
