22
Coordinates from ORCA-job ./opt_b97-3c_parallel
  N   -0.62247290292448     -3.68823413126373      1.00149312182094
  C   -0.10192463075333     -2.67243357352931      0.78566755794039
  C   0.55319041547278     -1.44436426926374      0.53515657781624
  C   1.95465028540338     -1.41749119672697      0.68308882841516
  N   2.84806665481102     -0.55196781862217      0.26865495690372
  C   2.51523017315209      0.61299529759662     -0.33874771732784
  N   1.47144418645498      1.40273325785564     -0.12247325952048
  C   0.30615829243688      1.01939194802349      0.35239592880155
  N   -0.42204015849797      1.87119370228689      1.06121179540082
  C   -1.73410717874450      1.89223147974198      1.20313152480706
  N   -2.69556229747708      1.38477101066144      0.45359599529591
  C   -2.41669636381939      0.40219045259096     -0.42456279809365
  N   -1.43757289433357     -0.50753733487364     -0.37191112404914
  C   -0.23779007797949     -0.34155971806505      0.13470452173004
  N   -3.31895843362116      0.22514910126159     -1.40574666715236
  H   -3.30563274043848     -0.63482224608793     -1.92354578816560
  H   -4.17146052854468      0.75347396559816     -1.36116566644918
  H   -2.08151537464427      2.50695658958773      2.02786893233325
  N   3.44743814224893      1.07744805500059     -1.19092181698270
  H   4.33689743901848      0.61367175786534     -1.21790370644453
  H   3.37712238385411      2.02322877729465     -1.51883779087308
  H   2.38194736072485     -2.30140620443265      1.14660711849224
