28
Coordinates from ORCA-job ./opt_b97-3c_parallel
  N   -5.00583370384510     -1.22120520807084      0.68617712361463
  C   -3.86093406478875     -1.04130257781243      0.57643154492696
  C   -2.48637280731348     -0.77985857911229      0.40118324680152
  C   -2.13187360427014      0.40488182714840     -0.32157294408663
  N   -3.13512856196026      1.06374232691387     -0.93897846557194
  H   -2.98491444629781      1.98494211590948     -1.31174930188854
  H   -4.08614431940485      0.76808810051550     -0.80492667525907
  C   -0.83638705036158      0.96213759639337     -0.35888522999338
  C   -0.74453627648287      2.24168213165392     -0.93970045760424
  N   -0.71405112231424      3.30219044180372     -1.42176468157881
  C   0.40033876831071      0.41745295816370      0.13552903141949
  C   0.56896566528669     -1.04132970274709      0.19814496538236
  N   1.59681798275931     -1.64764924997324     -0.35583131848672
  C   2.84341851697178     -1.23244586244241     -0.51197299149729
  C   3.46775216473723     -0.15698390699940      0.14394801656341
  C   2.81558549826412      0.96835046465207      0.62149091488251
  C   1.43271055908899      1.25674353949282      0.47492188982819
  H   1.16933730756553      2.29904511434094      0.60818750262417
  N   3.56269338003009      1.94243663673086      1.22710155664507
  H   3.16064930009676      2.85782238316892      1.31946081235942
  H   4.55750047500327      1.93626427265003      1.08950293088357
  H   4.55068656349663     -0.16137822688708      0.18073439879896
  N   3.58934373236934     -1.99863804634697     -1.35593015799262
  H   4.58245054308976     -1.86841480502802     -1.39925224680524
  H   3.24010989231900     -2.91706473549012     -1.56383828412603
  N   -0.30488736039101     -1.81779279680804      0.82866914136938
  C   -1.59069255781415     -1.65579567359158      1.01235433387466
  H   -2.03309159454804     -2.36477487655366      1.70598888498727
