27
Coordinates from ORCA-job ./opt_b97-3c_parallel
  N   -4.50647913840389     -1.36791557821763      1.20958386052717
  C   -3.49027249059962     -0.93788425487714      0.83314659580032
  C   -2.29720065025537     -0.37072443508996      0.34565227034301
  C   -2.43264644477134      0.79609308084567     -0.55973644508501
  N   -1.52488135901515      1.64887075017066     -0.91634952018181
  C   -0.25773732604898      1.67380179761610     -0.40559594407332
  C   0.55894030733776      0.67917740589115      0.01770983696370
  C   1.87911022208405      1.07026519341436      0.55701781698913
  N   3.03898086142132      0.53203015561580      0.32475756143285
  C   3.26021685895263     -0.62235411871585     -0.34911999072832
  N   4.50238500629620     -0.67396240385906     -0.91105907154293
  H   4.86220727015382     -1.56153701670113     -1.21185464285026
  H   5.17547336378288     -0.01360558381011     -0.56408072166388
  C   2.43106542292820     -1.73445700923728     -0.40349570352276
  C   1.08983192590805     -1.77864512804348     -0.03102261228901
  C   0.18910899559632     -0.74068346980861      0.14263185792401
  C   -1.13393390575572     -1.09331947877980      0.48399178701954
  H   -1.26407836241059     -2.09432958561596      0.88239513087657
  H   0.67517123266991     -2.77523240267311      0.07136000909064
  H   2.88207471959081     -2.66602472687334     -0.72244211262443
  N   1.88382950363281      2.16156251517846      1.35722448714471
  H   1.02460963430850      2.48937297915223      1.75526909798278
  H   2.74821561245166      2.41498229415531      1.80397769700316
  H   0.16685436575401      2.67286065308237     -0.42955760471979
  N   -3.65649132134332      0.94122849199815     -1.11234736109119
  H   -4.43730777072537      0.37634432717161     -0.83335642853738
  H   -3.81019740444146      1.73687527121180     -1.70461735948620
