24
Coordinates from ORCA-job ./opt_b97-3c_parallel
  N   -2.17854836219151     -2.79827344040131      0.85367028709227
  C   -1.75578204574350     -1.76880210852088      0.51268703190741
  C   -1.34177942039787     -0.46664960933553      0.16259342785829
  C   -0.01532121884913     -0.33670838828353     -0.32425677388685
  N   0.56001911877976     -1.40073931231680     -0.84077907279857
  C   1.84945490659545     -1.66532073350837     -1.04510495918680
  C   2.95316916186328     -1.10479599975642     -0.46244810957611
  C   2.88761469046373      0.07439291546282      0.32157818611217
  N   1.93698852798388      0.98703307605808      0.28608583964452
  C   0.70811946760650      0.94852769683725     -0.22245764612051
  C   0.11542199592145      2.13659933686156     -0.64271704798526
  C   -1.24090374652721      2.40827231328244     -0.76886276462644
  N   -2.31634424950019      1.76950037837823     -0.35237523278506
  C   -2.33364487236450      0.55117489854163      0.21251763356524
  N   -3.50617661610872      0.26886670934818      0.82060946770066
  H   -3.71519021576061     -0.66111016740253      1.13909335033738
  H   -4.26630007387890      0.90120369299257      0.64566958436288
  H   -1.47391676227702      3.37169448232982     -1.21573918808509
  H   0.79157293921809      2.96320540494017     -0.82141300593697
  N   3.95693387153705      0.38377258828098      1.10557719852077
  H   4.55289100341762     -0.35454485231233      1.43142247587702
  H   3.85917029908181      1.18682291375693      1.70266214420184
  H   3.91462607327637     -1.58012857849944     -0.60471244744398
  H   2.01376208435183     -2.49769729163340     -1.72288940884883
