25
Coordinates from ORCA-job ./opt_b97-3c_parallel
  N   -1.73853552599684     -2.51204687316794     -2.04594781432951
  C   -1.81924726142146     -1.61882140529712     -1.30770344399793
  C   -1.93027416756609     -0.49871482440083     -0.44670684660284
  C   -3.21028187952911     -0.00236128482829     -0.25627462967637
  N   -3.63825117430674      0.98574890331235      0.53619872826320
  C   -2.80565909600829      1.88598475549618      1.01170517250601
  N   -1.60034205657826      2.22471822964225      0.57847623147260
  C   -0.64933406106237      1.52449089573531      0.01205466334092
  C   0.39557744577328      2.20203810788527     -0.66441646627420
  C   1.69976522933468      1.81652681007283     -0.73232533865028
  C   2.36481843705216      0.70707511002627     -0.16350428605545
  C   3.77748358615069      0.74499580706929     -0.18730608824385
  N   4.94020419188929      0.72312103885554     -0.17404365975353
  C   1.79186015356088     -0.43189958973311      0.43280133871512
  N   2.59706712841998     -1.34085745154868      1.00436654004246
  H   3.59666021503286     -1.23859823230457      0.95103345141123
  H   2.23641633352605     -2.22458952475078      1.32134705003703
  C   0.37884336040267     -0.75632589788590      0.38143482379864
  C   0.07420453006514     -2.10038792705238      0.71570759557171
  N   -0.09121316037747     -3.19277566482308      1.07443624466818
  C   -0.68070828304342      0.06315677614755      0.04618105288768
  H   2.36371921494845      2.51712860422891     -1.22184304141329
  H   0.13514868704568      3.17761196073928     -1.05268926447616
  H   -3.19502623802098      2.52304200596758      1.79942531079887
  H   -4.00104712089091     -0.54603351088619     -0.76101733924082
