26
Coordinates from ORCA-job ./opt_b97-3c_parallel
  N   -0.67229324753943     -3.18035267473834     -1.86023370771418
  C   -0.09669382563314     -2.36374213860260     -1.26588619503023
  C   0.63293570866329     -1.35308405089062     -0.59881196105367
  C   -0.03989399379486     -0.10833115766846     -0.28680924589973
  C   0.70990664723404      1.11713793847649     -0.55075432517504
  N   0.13988429860492      2.08853445051206     -1.32229556362956
  C   -1.05346301750130      2.57788848989671     -1.17604582541373
  C   -2.05369037517452      2.26574469496006     -0.24460035745807
  C   -2.20201916809267      1.05471440135491      0.40265848780802
  C   -1.33292062225324     -0.09708460235426      0.20261557836898
  C   -1.87052411633047     -1.32155294402056      0.66792730002475
  N   -2.38129588798864     -2.25216173069142      1.14144154597767
  N   -3.26400736179041      0.87228478803350      1.22660590729035
  H   -3.99568799137263      1.55881088632834      1.23232216272894
  H   -3.52450681038516     -0.05563969542693      1.51472120212367
  H   -2.86413311831341      2.97813376744614     -0.15194304930576
  H   -1.30074092471291      3.36377104149427     -1.88665530039884
  C   1.99163039028766      1.31526173849614     -0.11831719090350
  C   2.84417755554623      0.37676516274679      0.52817060107370
  N   2.86098695855727     -0.94374685557785      0.39179757085541
  C   1.94839120266194     -1.64389460557041     -0.26848788695910
  H   2.27067564337554     -2.64915873833800     -0.52115817163351
  N   3.86261087837121      0.87793476134805      1.26434742119346
  H   3.85747664740961      1.83040297049575      1.57586491410043
  H   4.48047570602308      0.22530564631090      1.71315758397538
  H   2.38930066004699      2.30743754177985     -0.29576178914501
