26
Coordinates from ORCA-job ./opt_b97-3c_parallel
  N   -3.93404121157919     -0.42271615474433     -0.53928103274781
  C   -2.61687645949372     -0.27005397120392     -0.18429608451195
  N   -1.97595144758632      0.70768034274607     -0.73837306557570
  C   -0.70395293954607      1.10211473202674     -0.37963860193415
  N   -0.55411756980671      2.49318218637521     -0.49420728762030
  H   0.34493274693051      2.78309123645202     -0.84958506316143
  H   -1.30182967085539      2.87877365614019     -1.04963279083316
  C   0.33084630626094      0.32218996576694      0.02700878386946
  C   1.61603404327565      0.94397772796347      0.46559576625389
  N   2.79055203454001      0.68848309091808     -0.01112158162709
  C   3.06752423270156     -0.38906127458576     -0.79927916859633
  C   2.46479541059420     -1.60898682121360     -0.80129365611952
  C   1.27615468052210     -1.96355021677511     -0.10518582864219
  C   0.26978468212481     -1.11739555065416      0.25434821293746
  C   -0.88496574990537     -1.63536981014161      0.96413026931007
  C   -2.15442393972676     -1.22469286034341      0.81684402546093
  H   -2.92605167853002     -1.70760653735461      1.40455344108486
  H   -0.70989724462382     -2.45201108825237      1.65865865042951
  H   1.13609604942402     -3.01760580492910      0.11349821744193
  H   2.97718046607263     -2.40190775865162     -1.33334621148600
  H   3.97943980552043     -0.27543589599514     -1.37580579366539
  N   1.51402938129683      1.82091536114606      1.50386619690450
  H   0.65025779350927      2.32947160093083      1.59736443790419
  H   2.35475288536439      2.32307344241029      1.73717572683034
  H   -4.21322006837815      0.10584180042707     -1.34924751698903
  H   -4.33401313660639     -1.34213291295813     -0.47145628001790
