26
Coordinates from ORCA-job ./opt_b97-3c_parallel
  N   -0.99274669693572     -2.98156249341424     -1.01343916216979
  C   -1.01723112007672     -1.88457570780370     -0.62766082349885
  C   -1.14941151040264     -0.52670218136532     -0.25509953842005
  C   -2.51852919553163     -0.02252616857192     -0.22899911442113
  N   -2.98059521862782      1.00118447775011      0.44997260832475
  C   -2.24190885451944      1.94571470912326      1.05195014378684
  C   -0.93898868900183      2.31436353234228      0.87981044646816
  C   0.03860604826713      1.66143467949542      0.07526296837039
  N   0.97031099311597      2.38736612359550     -0.47902186721256
  C   2.10251802174183      1.99635194490193     -1.08041306803845
  C   2.87373603638099      0.90085978244086     -0.84339819898704
  C   2.52636922079222     -0.19547242727071     -0.00772950749411
  N   3.52771363955617     -1.02696144382808      0.34725382623075
  H   4.48118332987540     -0.78263336860373      0.16196863438898
  H   3.35248359982961     -1.84696016933419      0.90205244966365
  C   1.21164682649704     -0.50691206689142      0.38354332416874
  C   1.06929701320662     -1.63226369543727      1.21948921095632
  N   1.05114103862511     -2.55000699980653      1.93576627707578
  C   0.00384280109250      0.19185973984225      0.01191063750789
  H   3.84978994641468      0.86960044517207     -1.31100501952228
  H   2.48538875726591      2.72402934141203     -1.78914533216437
  H   -0.61673660776288      3.24371112520070      1.33199109837023
  H   -2.82989459903512      2.57825265708321      1.70958957079593
  N   -3.44040487824584     -0.73167870937317     -0.91585722016156
  H   -3.22079625477563     -1.62959042330270     -1.30915600225481
  H   -4.40426349304632     -0.51320475195664     -0.73555411156436
