21
Coordinates from ORCA-job ./opt_b97-3c_parallel
  N   5.11317933866289      0.34549219695858      0.05817125419554
  C   3.95588249892541      0.24302455611588      0.04335426543770
  C   2.54832605564909      0.11506314791805      0.03025439114703
  C   1.94770917025014     -0.80716849695130      0.91316911629063
  N   0.73719522211449     -1.29393858979577      0.86347471641740
  C   -0.30839210432861     -0.90337543131160      0.12796594337692
  C   -1.26337403529094     -1.78638422118097     -0.34265283619802
  C   -2.56331708852675     -1.43603443183071     -0.73354971985518
  N   -3.27656785553372     -0.35753477442067     -0.49326076522148
  C   -2.76480173624676      0.71462050864706      0.16590997864046
  N   -1.53635900838430      1.21398372119057      0.12325309008120
  C   -0.45781831124699      0.53247676668346     -0.19707635671572
  N   0.52023758644860      1.13622585450053     -0.85915577307977
  C   1.80794554486674      0.89574534055475     -0.87016915729886
  H   2.35992268296018      1.41627586611354     -1.64613426545233
  N   -3.67568807281491      1.42363916866590      0.85503983611632
  H   -4.64465159708149      1.18924346574627      0.74170396600164
  H   -3.42572284634796      2.32942231109846      1.20722111464768
  H   -3.12313742556326     -2.21579920127260     -1.24294644500461
  H   -1.00023700601945     -2.83577825889538     -0.37918196975507
  H   2.57304534660750     -1.21828231483446      1.69921635822853
