29
Coordinates from ORCA-job ./opt_b97-3c_parallel
  N   5.37352037121332      0.56627374412396      0.03742758343799
  C   4.20808754190857      0.51339753627826      0.03355300120050
  C   2.80942135530850      0.38081191483644      0.02387136613606
  C   2.26604098899496     -0.91073672398099     -0.19478834715286
  N   3.15117916530482     -1.91446114173437     -0.47143450650543
  H   2.84333457470674     -2.86510003631080     -0.38537690914570
  H   4.13011277305333     -1.75548746795500     -0.30434008597545
  C   0.91668435087586     -1.26308874802823     -0.17478175037375
  C   -0.31146989205294     -0.59277218934339     -0.00216666361530
  C   -1.41424575004068     -1.46719344001769      0.10390811785045
  C   -2.79662499960438     -1.30345657621792      0.08056050308857
  N   -3.54406333386308     -2.46688144100243      0.11854626058217
  H   -4.48834645404170     -2.37968445794512      0.45140924023624
  H   -3.07912738151431     -3.28547912936119      0.47052449780988
  C   -3.53339179492495     -0.12248350683342     -0.05367510172296
  C   -3.00978641468822      1.15521163220646     -0.09458786740049
  N   -3.90941620951898      2.20077778518162     -0.16419752495419
  H   -4.82884479255848      1.98235806612196     -0.50578156837069
  H   -3.55689714232818      3.07594554647670     -0.51014879863893
  C   -1.65779561714393      1.54129009135297      0.00248218469503
  C   -0.44758828964762      0.85906438962027      0.07599686121724
  C   0.68016818329076      1.71846694486176      0.25828311163842
  C   2.03171671584246      1.52513986010256      0.24083909706088
  H   2.61132696773296      2.42333763673478      0.41699524688916
  H   0.40303713381073      2.75008374138244      0.43459521423702
  H   -1.53983086610709      2.61837344311418      0.03287544781561
  H   -4.61026581279597     -0.22132514439740     -0.12213045909647
  H   -1.12227765562566     -2.50951751997568      0.16618298179809
  H   0.78107139441290     -2.32773493989100     -0.33067479494137
