27
Coordinates from ORCA-job ./opt_b97-3c_parallel
  N   4.81332253400351      0.05679749282986      0.39961790925473
  C   3.65161962837577      0.04793879760331      0.28468226424497
  C   2.25810385588588      0.05379421861559      0.14167959207134
  C   1.56989038124056      1.26022328343521      0.40485217858306
  N   2.30295342760418      2.30892542498043      0.86984340381861
  H   1.88516252533921      3.21956910681030      0.89778475464898
  H   3.30653941333377      2.27895127725523      0.82018826473106
  C   0.20339210901206      1.50216290748661      0.18067522875555
  C   -0.83800766730588      0.60968033728678     -0.02475420412780
  C   -0.64810742079404     -0.83529417277705      0.18383375270545
  N   0.39278679280162     -1.47055067734214     -0.35346734126532
  C   1.64223137513322     -1.09639696139183     -0.45667548957744
  N   2.43707087606280     -1.92299240237179     -1.18670933527234
  H   3.43406443334782     -1.80415564368969     -1.16474373770368
  H   2.08832097009752     -2.85078805705840     -1.34647918118358
  N   -1.49694551647683     -1.57564806155736      0.86013317925788
  C   -2.79762716660307     -1.40575247470048      1.06815744321869
  C   -3.68714619718751     -0.58907020209688      0.42035894043628
  C   -3.34790157040522      0.52642913697865     -0.38054047477935
  C   -2.07923290542782      1.08048023639174     -0.49696504836405
  H   -2.03344001566642      2.04058179248373     -1.00108269566629
  N   -4.38474159674525      1.15280639052177     -1.03485315698246
  H   -5.31524347681075      0.96220644623189     -0.70758018539242
  H   -4.24492144252741      2.10602107402653     -1.32057897206613
  H   -4.74005740707601     -0.77146518348754      0.59934482521759
  H   -3.20996932193156     -2.08172131144937      1.81209309473285
  H   -0.08161595587919      2.54824043928629      0.20148904830299
