24
Coordinates from ORCA-job ./opt_b97-3c_parallel
  N   -5.04129822942217     -0.14550705630773      0.79153383042463
  C   -3.88454366641612     -0.11610080351841      0.67005245543537
  C   -2.49315335191542     -0.03468108730681      0.46766134575511
  C   -1.65457135581843     -0.92200028699935      1.13160039627644
  N   -0.39303927771046     -1.20622191794627      0.87413669342977
  C   0.49468559756261     -0.51002250219168      0.19458119941481
  C   0.34321453589883      0.95437599176123      0.03204481896613
  N   1.29970670084105      1.79621464634061      0.37199379656390
  C   2.59840758874499      1.54061938466021      0.33261921787763
  N   3.27152845907304      0.67842527102546     -0.47381318387706
  C   2.77657246426933     -0.47741535176682     -0.83478462742145
  C   1.58559080810365     -1.13265382692726     -0.44639671236967
  C   1.49324938325110     -2.51687153103005     -0.72258720730740
  N   1.43961622270990     -3.64980186738882     -0.97277316976708
  H   3.43285986413220     -1.06013554288965     -1.47364601924890
  N   3.39016532216995      2.31462027607364      1.09266641799766
  H   4.38180254413808      2.27805916385399      0.94448456740425
  H   2.99122978332210      3.09243631587480      1.58526597665530
  N   -0.77437384150110      1.43493324607084     -0.48053874314629
  C   -1.99892390774113      0.94417430529311     -0.46519927208060
  N   -2.85984137618022      1.48081864657480     -1.34566529140191
  H   -2.56828967582725      2.28291945783324     -1.87431361461222
  H   -3.83205225320366      1.22898630872124     -1.34277730257881
  H   -2.10291374214962     -1.52990237744131      1.90971518538461
