34
Coordinates from ORCA-job ./opt_b97-3c_parallel
  N   -1.52024317894966     -3.81938706259700     -1.75338738503168
  C   -1.55954201972652     -2.79469187589066     -1.19899406277773
  C   -1.67699698745930     -1.56377248638505     -0.52956813715868
  C   -2.98450938916435     -1.10359503397038     -0.30222849827027
  N   -4.02183538396553     -1.88703615072496     -0.71322116336984
  H   -3.83515186281896     -2.67343789938511     -1.31184934749260
  H   -4.92660612292045     -1.46701970186005     -0.81628039044951
  C   -3.34975062597468      0.04095426752110      0.43372233869470
  C   -2.59315719699848      1.13162151122166      0.78394945788817
  N   -3.16502793524748      2.09772733216439      1.55505654946405
  H   -4.16167244527555      2.09232554102329      1.67117736897283
  H   -2.72569821441637      3.00002060454817      1.62185843434070
  C   -1.22572095837713      1.37907034676894      0.36311582085839
  C   -0.80331455883158      2.72280096636052      0.51546629303045
  N   -0.53531680296128      3.83110623411660      0.74319821273409
  C   -0.28751241955768      0.47339145134109     -0.09619413805720
  C   -0.44593332962332     -0.97880977162154     -0.04610499668975
  C   0.57309085040472     -1.82504990753366      0.29518360479330
  C   1.91131185774672     -1.55457011439276      0.67629531101212
  C   2.64724695413420     -0.40054103936595      0.36134221057535
  C   3.98394008600926     -0.36243978674268      0.79523065225088
  N   5.09084698644696     -0.36272041449217      1.15954006692096
  C   2.21984500213511      0.64145045268832     -0.52264225281446
  C   0.88253613283571      0.98997153047784     -0.77177801166948
  C   0.67145995032840      2.01772649481815     -1.71025057704973
  N   0.56371416930497      2.84390000392873     -2.52422664754990
  N   3.18845716974212      1.37240511706939     -1.10905853680675
  H   2.96140959590817      2.22078572193041     -1.59803778614036
  H   4.15660478725672      1.19050674458429     -0.91629609506700
  N   2.53552795556262     -2.55321587144310      1.34130247159216
  H   3.49296340291788     -2.46961673404172      1.63346416071647
  H   2.01694511902865     -3.34551766301541      1.66811997261975
  H   0.30743620861875     -2.87335628526055      0.33856766335459
  H   -4.38641734821256      0.06620964035937      0.74839213277592
