28
Coordinates from ORCA-job ./opt_b97-3c_parallel
  N   4.00107536794484      0.54697886476374      0.67249007973172
  C   2.63487049993989      0.47161197025816      0.38245205072702
  C   2.27935614532261     -0.62577862557410     -0.47099752128832
  C   1.04958245966441     -1.17218530515882     -0.64723520428928
  C   -0.16182141372590     -0.74306449953448      0.07965250604997
  C   -0.94091799137468     -1.66420168213845      0.69855475263868
  C   -2.23112157277335     -1.46655150487305      1.27061868549716
  C   -3.11897205043379     -0.50283222917328      0.90854951222265
  C   -2.95039507018475      0.53047172359153     -0.05180166658193
  C   -1.77642833309670      1.06543976164160     -0.49745538509493
  C   -0.45060159049744      0.69463293081797      0.02648795627312
  C   0.44480762957757      1.65227977761764      0.37923531791040
  C   1.80101078259143      1.48499760923100      0.76468371641874
  H   2.24216755454196      2.30128601676115      1.32721440252250
  H   0.07388025787912      2.67204949842911      0.40383816073642
  N   -1.77652434853406      2.09666530437587     -1.41622240122766
  H   -0.90263996326142      2.25197212630630     -1.88845457273065
  H   -2.58337015356988      2.17937958534067     -2.01249614948937
  H   -3.86439063299987      0.97373780950731     -0.43550276966047
  H   -4.11185544062291     -0.57112691817789      1.34088014210693
  H   -2.57520168396588     -2.22846260394710      1.95946151984423
  H   -0.54786884783057     -2.67447159015941      0.75200989166302
  N   0.86750773938486     -2.25447469191766     -1.48926725633156
  H   1.54493079155517     -2.37699788025464     -2.22422685250075
  H   -0.08104598776615     -2.40281523602033     -1.78836411186899
  H   3.10462011263674     -1.06822889205847     -1.02098735520830
  H   4.23031838696630      1.21762354047974      1.38830757517835
  H   4.42794541853223     -0.34472603973446      0.86813689145141
