23
Coordinates from ORCA-job ./opt_b97-3c_parallel
  N   3.96755517877081      0.98188196386451      1.75541695099326
  C   3.10418389310541      0.49344571685085      1.15211570024077
  C   2.03211278553192     -0.08430390800511      0.42154894265683
  C   2.15788824640568     -1.39762378628822      0.04214552489728
  N   1.41867053669955     -2.01993331176466     -0.91400226090488
  C   0.17603092171664     -1.82697021135934     -1.13115128706808
  C   -0.73187404701836     -1.02231938639139     -0.28174169177745
  C   -1.86032896049723     -1.53221408751242      0.26881508432541
  C   -2.81972603305352     -0.80613197651325      1.02353286287502
  C   -3.02758148282184      0.53944783192430      0.96281855886940
  N   -2.51477845296942      1.44061379082254      0.08768288841158
  C   -1.39718648478869      1.33302843137490     -0.55310899435944
  N   -1.16745149527218      2.13386486167110     -1.61988676986549
  H   -0.24186114193953      2.23530414715612     -1.98964114398822
  H   -1.84821923979917      2.84105000639841     -1.83667204292547
  C   -0.32073693315487      0.36324060414318     -0.21177447208831
  C   0.93435949481081      0.78043330939241      0.08585799127314
  H   1.12384394429024      1.84500685117771      0.14506049885009
  H   -3.79324583003974      0.95980540381705      1.60509068054219
  H   -3.48294212498073     -1.37423107864959      1.66293943818591
  H   -2.02229239755388     -2.59968471733422      0.15849122540240
  H   -0.23534950203987     -2.26390795127245     -2.03972771161629
  H   3.01760461829782     -1.95784010950203      0.38503473057025
