29
Coordinates from ORCA-job ./opt_b97-3c_parallel
  N   -2.31868404966111     -3.19222484053724     -0.01083435392867
  C   -1.46896641573736     -2.39665891203100     -0.03201002157089
  C   -0.35956074796342     -1.52345110297408     -0.10382838973646
  C   0.91045997053198     -2.14400683345502     -0.36544152081755
  N   0.86241556490528     -3.42672474720259     -0.82706739535098
  H   -0.00841798413129     -3.92785866736842     -0.77606140472622
  H   1.68851503615031     -3.99146920252833     -0.75223705991335
  C   2.15721545199758     -1.59094945155912     -0.15362841077012
  C   2.50185814870289     -0.31034273301786      0.30365743198783
  N   3.79447698113032     -0.15031037337816      0.69985779588674
  H   4.45681004274622     -0.87896065462237      0.51314165115893
  H   4.16914402002038      0.77480065750324      0.82229840108289
  C   1.66488470799665      0.82917435595306      0.34244073010864
  C   2.29768123094734      2.03827758102585      0.68273172453695
  N   2.87764889216391      3.00775138474010      0.97209625836985
  C   0.29775806601623      0.92407334718637     -0.08090585394060
  C   -0.14019727705073      2.10215303363177     -0.66382991174128
  C   -1.43517448348064      2.52128092595220     -1.00631325456515
  C   -2.64154787287481      2.03642403913255     -0.59453594811503
  C   -2.75496996648841      0.99700831700435      0.37277455611564
  N   -1.87045387221938      0.06602653537876      0.61609283204941
  C   -0.64942613081209     -0.17437423115022      0.12530712843701
  N   -3.87840201600735      0.95280108992486      1.13718881424351
  H   -4.65505480071876      1.54801257248695      0.92144759013870
  H   -4.07011529820191      0.09879425572123      1.62981086526189
  H   -3.54311946207488      2.55252489188958     -0.89859610144198
  H   -1.47026615281382      3.39730411674441     -1.64371107385774
  H   0.64436873904674      2.79211059761566     -0.94472971881137
  H   2.99425157158576     -2.25983695506904     -0.31715830288430
