27
Coordinates from ORCA-job ./opt_b97-3c_parallel
  N   -4.43763416055037     -0.65874811877589     -2.36621602162979
  C   -3.67655482456416     -0.23525539724209     -1.59788811833676
  C   -2.73289942209772      0.24869428664495     -0.65424235794772
  C   -1.70136892888252     -0.68853428328596     -0.24470271341262
  C   -0.51534262886935     -0.39034136426200      0.31092726026848
  C   0.33318484737199     -1.49697047784968      0.83447000665409
  N   1.54481533027905     -1.76048649272012      0.47325517585472
  C   2.34229107192241     -0.96725997598209     -0.28386061184156
  N   3.26102017736269     -1.65634585937945     -1.00793568196358
  H   4.04028166958789     -1.16090522032627     -1.40673982015352
  H   3.41986792294575     -2.61036520852431     -0.73807558912577
  C   2.35007837556153      0.43256959154855     -0.26154226802445
  C   3.47435978970094      1.07428943255532     -0.81761317765962
  N   4.42381375786669      1.55880087475909     -1.28703023994538
  C   1.33888889400987      1.25253535406843      0.32054425907509
  C   0.03794244957072      0.94293434623379      0.56441226339455
  C   -0.84426608569916      1.91871402502277      1.17609357480974
  C   -2.14715014057529      2.13418150360561      0.88522327924894
  C   -2.94216909004209      1.47595343351564     -0.10289739257793
  H   -3.83215986320035      2.00486264656156     -0.42038524098395
  H   -2.63030719702704      2.96119976419203      1.39049939212857
  H   -0.39109950411911      2.58168195287950      1.90621103214179
  H   1.63845575708783      2.27361290072533      0.52453536599291
  N   -0.25526978444687     -2.30052679365027      1.74586005188899
  H   0.30996830521900     -2.97018323159925      2.23905220481218
  H   -1.15115545500523     -2.05746959366676      2.12314126170118
  H   -1.94350396710597     -1.73427729174888     -0.39198459566735
