26
Coordinates from ORCA-job ./opt_b97-3c_parallel
  N   -2.24297347386171     -3.00845196072296      0.79891464597335
  C   -2.03535490534282     -1.89620659903379      0.52473478655292
  C   -1.79215482883145     -0.53857700598042      0.19783570135134
  C   -2.97166795257590      0.22709484690633      0.19916079734843
  N   -3.23293595825624      1.48576832965348     -0.07661731283556
  C   -2.25129218673795      2.36020428832887     -0.35133358720295
  C   -0.88700949884606      2.26834858828542     -0.31969960738372
  C   0.02686983859863      1.19114276065118     -0.08304895549353
  C   1.34561045524289      1.59123045104338      0.08293050881798
  C   2.57368163141305      0.90283853858605      0.16276656829746
  N   3.67174657943980      1.69513284315044      0.37947140129555
  H   4.52709351476880      1.25206073404090      0.66186997599189
  H   3.52532558564358      2.60650501769245      0.77447712392185
  C   2.80601990514102     -0.45010848809213     -0.03578699230405
  C   1.83870870679757     -1.41255563490973     -0.31268322075768
  N   2.28730873868204     -2.67054775930350     -0.60057477082284
  H   1.64094872159099     -3.43691189107475     -0.54360099694919
  H   3.24269502926077     -2.90332936699918     -0.40041017299689
  C   0.43851344304444     -1.26596375390914     -0.31301167461111
  C   -0.41130520051910     -0.19530223322164     -0.07668957435360
  H   -0.07389596712175     -2.20614194034076     -0.46389649311337
  H   3.83688191730070     -0.78263134018412     -0.00459421486073
  H   1.46338071028841      2.66677366262363      0.14466495727330
  H   -0.39359555198458      3.20849325964722     -0.53681923817228
  H   -2.62789510339222      3.34550503240267     -0.61454967419189
  H   -3.85536409056549     -0.34918988096559      0.46125457322938
