31
Coordinates from ORCA-job ./opt_b97-3c_parallel
  N   -2.74925036093774     -3.53154419879693     -1.08922114558259
  C   -2.17529655575055     -2.60637902954897     -0.67485095126582
  C   -1.52791331567894     -1.45738991583139     -0.17919620282273
  C   -2.20270051220881     -0.25003593329858     -0.30314926845459
  N   -3.39931879876390     -0.20446214259963     -0.95082435884461
  H   -3.99080026186778      0.59768289180403     -0.82413747298579
  H   -3.87553817832217     -1.07113879332028     -1.13790496077998
  C   -1.75793380755050      1.00543387649356      0.28088059666755
  C   -2.75825765862856      1.93769367844171      0.61519639956450
  N   -3.55544353531601      2.74661743873649      0.87753895459053
  C   -0.44041124626054      1.41143579371189      0.46110669720571
  N   -0.16838968480374      2.60601069060045      1.02940199326847
  H   0.76159941074777      2.97333330156716      0.93197276482637
  H   -0.90667218456028      3.26924967473967      1.20068136528388
  C   0.70504594647395      0.58538552968280      0.08246371260575
  C   1.76118769339164      1.09616299369195     -0.63659484790856
  N   1.67158252521159      2.37837292626578     -1.19343241836070
  H   0.77242843443421      2.60485217528952     -1.58967878898251
  H   2.41289922975124      2.59519939232980     -1.83807859501010
  C   2.98770164937663      0.41097658757435     -0.86434528847549
  C   3.53776978353037     -0.57850302846316     -0.09408168835798
  N   3.11363383547795     -0.97687364932337      1.15377044712722
  C   1.88043714378841     -1.06107921338449      1.48241755974115
  C   0.71907699540826     -0.77125214203991      0.63032672131784
  C   -0.29026297112855     -1.65464657877921      0.52574281856939
  H   -0.16440258456102     -2.62618068914522      0.99120440866351
  H   1.69028794160149     -1.36381666170947      2.51176792359837
  N   4.72756656168558     -1.17056276003590     -0.44553770795479
  H   4.97645494841603     -1.97539628891753      0.10325875914815
  H   4.92917287994513     -1.25048333693941     -1.42601693473055
  H   3.59070629809946      0.76585660700412     -1.69364264566169
