25
Coordinates from ORCA-job ./opt_b97-3c_parallel
  N   -0.63566267427189     -3.60604210956013     -1.54657734304588
  C   -0.88732348377823     -2.53598738055057     -1.16511578871854
  C   -1.16969797083291     -1.23984699770759     -0.67933174931862
  C   -0.06931033517593     -0.50488775340397     -0.11758783416399
  C   -0.16975720333961      0.96922585323631     -0.10078278934511
  N   0.82873074395835      1.71575532046672     -0.55107979521020
  C   2.11987106071467      1.43793117874371     -0.53409984237835
  N   2.81928423714491      0.59901244367631      0.25669685429346
  C   2.30587217891634     -0.53931180715617      0.68432143121576
  C   1.05680160418887     -1.13692698239894      0.33143613318154
  H   1.00665316988258     -2.21443164575612      0.42628206731853
  N   3.10972298848966     -1.26211686862326      1.49933863563336
  H   2.87318868715766     -2.20391049163254      1.74772643441248
  H   4.06760690716550     -0.97402768723804      1.58967030949873
  N   2.88736772787367      2.18480994897047     -1.36202409078803
  H   2.47588458848392      3.00052771970332     -1.77684545032538
  H   3.88043768558363      2.16596871592524     -1.22230004176466
  N   -1.23618239664336      1.60217040696872      0.34158893652180
  C   -2.48089137802408      1.15230500512526      0.45576644456009
  N   -3.13120059357918      0.20690760391527     -0.24783560563952
  C   -2.49776951267753     -0.81866518126396     -0.78331648170554
  H   -3.14588799608934     -1.48758272005128     -1.34143398837852
  N   -3.25411628116371      1.81586706017955      1.34465329648642
  H   -2.91603933417313      2.68593444359661      1.71270351812643
  H   -4.24457695961581      1.65946522295108      1.30354502624113
