27
Coordinates from ORCA-job ./opt_b97-3c_parallel
  N   -5.45923510682315     -0.37146122469714     -1.13893863886434
  C   -4.36344384681167     -0.25912151036639     -0.77311802738493
  C   -3.01944770210828     -0.14154443021323     -0.32891742950045
  C   -2.41240168810156      1.09079600431302     -0.46428219238552
  C   -1.14537396511636      1.50769306921868     -0.02574184673207
  C   -0.91053577167036      2.90987743055410     -0.05754169267579
  N   -0.75132700188233      4.05789960504211     -0.11263377571464
  C   -0.07131980980182      0.72443108310644      0.42981907489948
  N   0.92996752364126      1.37125733882152      1.04383345339310
  C   2.21274198968344      1.24920836983367      0.94386899096931
  C   2.95060617132514      0.41507131381943      0.07375071782924
  C   4.31093007613980      0.70547958387998     -0.14544178766511
  N   5.43678238259724      0.89242509247887     -0.37053199681329
  C   2.45297573798789     -0.81683154453258     -0.40104891784122
  N   3.27637739781084     -1.62587571113185     -1.08610456140884
  H   4.23308412654416     -1.36672609485753     -1.25975082895671
  H   2.98876170223124     -2.54775705336289     -1.35752708556899
  C   1.15978607217992     -1.34265994885443     -0.10478510491101
  C   0.00801526620629     -0.71724190175653      0.28085514755606
  C   -1.15878163002165     -1.54249596417317      0.60776749147460
  C   -0.87289547608515     -2.79457339970169      1.20798472206959
  N   -0.60744047656057     -3.82056064276350      1.68400834676547
  C   -2.46442267226242     -1.28680769599347      0.29469307323795
  H   -3.16628039569928     -2.07759567569558      0.52258386796010
  H   1.07456409914095     -2.41184405427566     -0.25445661742996
  H   2.78981196362046      1.89035440723974      1.60304927249899
  H   -3.02507189707054      1.87320891226716     -0.89018947040300
