23
Coordinates from ORCA-job ./opt_b97-3c_parallel
  N   -3.63842406052562     -0.84375423608551     -0.97534459524232
  C   -2.59100494091096     -0.26087014455393     -0.32578546351029
  N   -2.85046287576868      0.98004006531044      0.08797566320942
  C   -1.93998306367111      1.78635515599383      0.62949409526470
  C   -0.56682827863292      1.72385616822670      0.71926604234942
  C   0.29450291656293      0.68963632256716      0.28760419391367
  N   1.50660789778623      1.03353784021435     -0.09821253235806
  C   2.58378703914330      0.27280949970148     -0.33214852553159
  C   2.85510698222306     -0.99395172901535      0.19168015810304
  C   1.89942524967670     -1.77616508670536      0.82281645350172
  N   0.58968833921836     -1.68464476557785      0.83227288011858
  C   -0.18628465124257     -0.70415391904134      0.31846878856674
  C   -1.44742026340515     -1.06213442921467     -0.11282430662553
  H   -1.58714809368341     -2.13325738077885     -0.20736872611386
  H   2.27590670105706     -2.63127549850475      1.38075750249640
  H   3.87097045081890     -1.36657239807485      0.15521956960353
  N   3.51410513024972      0.88558360760077     -1.11527483681018
  H   4.43121360191063      0.48802058660507     -1.19877710608274
  H   3.43205167511550      1.88086475555045     -1.22204464119639
  H   -0.06752537403394      2.63187244832155      1.03367707362077
  H   -2.37473555095773      2.71253172543572      0.99708885829179
  H   -3.64356600823519     -1.83409367129820     -1.13344490963061
  H   -4.52789187409611     -0.38591548487607     -0.88016342993739
