25
Coordinates from ORCA-job ./opt_b97-3c_parallel
  N   -5.52883528011660      0.13152112095095      0.32847673277013
  C   -4.37196785737154      0.08456746427595      0.22014589681283
  C   -2.96363065604415      0.03793371522639      0.08673090094236
  C   -2.29902724075584     -1.08357801013432      0.57008736181855
  C   -0.96043997839629     -1.41441058022449      0.48772312893735
  C   0.16749685818522     -0.71764522507785      0.02038594974585
  N   1.24615120852659     -1.48669424818082     -0.17105864925193
  C   2.52589858763693     -1.16249762392793     -0.21152505973129
  N   3.19679432004662     -0.08499678253288      0.25125709835447
  C   2.62050355139163      1.10270064488074      0.27503574880412
  N   3.44105021562257      2.11574045831139      0.65816757474794
  H   3.05320811861155      2.99337481235477      0.94991531502635
  H   4.33423183265298      1.85432978262002      1.03669223031664
  C   1.30941771335555      1.48417608226683     -0.12569378341304
  C   0.16928752836860      0.71751954426530     -0.25427286859607
  C   -1.00911095761709      1.39552959964200     -0.70727708536629
  C   -2.33604902085949      1.12434033678610     -0.56229112844737
  H   -3.00827925414234      1.86921670377855     -0.96944656363026
  H   -0.79667999181706      2.33782116453537     -1.19912276331441
  H   1.17693746576101      2.54849688215368     -0.27750878405160
  N   3.33455111749851     -2.11924655859975     -0.71948436265355
  H   2.95470519895521     -3.03302364041981     -0.88295708777104
  H   4.32653022447911     -2.00318805906421     -0.63071692744952
  H   -0.71164847720715     -2.41672941604621      0.81173085808557
  H   -2.92862485426598     -1.83842293043977      1.02431684861633
