27
Coordinates from ORCA-job ./opt_b97-3c_parallel
  N   -1.36891455542102     -4.10324495838117      0.50365362122229
  C   -1.22391734190830     -2.95948423825461      0.35995187106716
  C   -1.05986513853251     -1.56119136444385      0.18142420942077
  C   -2.18787887759741     -0.80583982903866      0.53601556349204
  C   -2.47376720691176      0.52499309330871      0.32913656200383
  C   -3.73367229933700      1.03056245292002      0.70871756164311
  N   -4.75899855730181      1.50666032651277      0.98382636563751
  C   -1.60817624646655      1.38706958271489     -0.44374344896795
  N   -0.32107659119784      1.23652747351549     -0.60297684981728
  C   0.55120111863979      0.29908939132402     -0.23533012046018
  C   0.22844812896635     -1.12436463881291     -0.23042364776673
  C   1.16674347810174     -2.07390636251937     -0.64864445506999
  C   2.54764216811238     -1.98495667464350     -0.72401114524684
  N   3.40521816706683     -1.09254049333950     -0.26375548671662
  C   3.07111342727391      0.09918121054565      0.23340882025293
  C   1.82560227780226      0.79813518020372      0.10241985000380
  C   1.88410647868983      2.19551836743974      0.31269319437990
  N   2.03490288607113      3.32818834545777      0.53056919723461
  N   4.08519438209257      0.73640489874291      0.84150017796877
  H   4.99598065956603      0.31693025420543      0.78178889064912
  H   4.00038638630102      1.68101055055291      1.17313090721249
  H   3.03542043142888     -2.84966757460118     -1.16405352540191
  H   0.77050892147301     -3.04490086517598     -0.91439754142170
  N   -2.16009745582637      2.44847111504929     -1.05462694669688
  H   -1.55097867033461      3.12773566567953     -1.47436534882784
  H   -3.13290008842993      2.67052738312386     -0.94116717466021
  H   -2.98032149681345     -1.37711164625296      1.00057253864983
