30
Coordinates from ORCA-job ./opt_b97-3c_parallel
  N   4.91123394387460      1.30201717907589      0.54165044151745
  C   3.81592306309416      0.96847090425446      0.32278337660292
  C   2.50312673336375      0.55047237452058      0.05448789572969
  C   2.12888190904606     -0.73767830454195      0.48519991870620
  N   3.02738457608034     -1.44958890460849      1.19172785001397
  H   3.96671987866496     -1.11161524014678      1.30742290159192
  H   2.85039255820499     -2.41455077324272      1.40991606989296
  C   0.89428440018920     -1.39333060724088      0.16859169683568
  C   0.87376311329903     -2.79136589852652      0.37685745054494
  N   0.94987071560285     -3.93097856823457      0.59667560128598
  C   -0.31695955959911     -0.83695648231039     -0.27501399914793
  N   -1.25348770288816     -1.67875707829735     -0.68402370077575
  C   -2.56701293112525     -1.51115970562230     -0.65949700277599
  N   -3.31498319155800     -0.72857595608525      0.13432888788609
  C   -2.90783834806933      0.44535227497756      0.57351880676367
  N   -3.74653612694347      1.06425585189980      1.42644699042805
  H   -3.59656387771510      2.01867751406717      1.70073861477808
  H   -4.65934497730303      0.66581345920116      1.55276119344267
  C   -1.71835830272852      1.16817652721678      0.18286952109966
  C   -1.74474693382308      2.56701394006431      0.36179495209983
  N   -1.84695756624744      3.70898097546987      0.56029304493915
  C   -0.52306330013523      0.61981625063609     -0.29867678969091
  N   0.38004187750348      1.45725732072181     -0.78623804081337
  C   1.69242944612876      1.40758545693823     -0.75623260056686
  N   2.31593114772981      2.32656140758766     -1.52667090070844
  H   1.76026805496956      3.09043864324675     -1.86814766893992
  H   3.30899300710548      2.46041012834599     -1.46149077640768
  N   -3.26893722744506     -2.33502637533701     -1.46832325439414
  H   -4.25870217341924     -2.40539197452464     -1.31912613967135
  H   -2.78844278894910     -3.12149776070482     -1.86661285156496
