23
Coordinates from ORCA-job ./opt_b97-3c_parallel
  N   -0.78893845063220     -3.15639899565337      1.03547027912960
  C   -0.91065320674217     -2.04564443502365      0.72359987399828
  C   -1.11369403694887     -0.67119880468342      0.41300565470827
  C   -2.46124379403314     -0.20853249517031      0.62589612299301
  C   -3.04302383873442      0.88882039281411      0.09506431528772
  C   -2.43460931988321      1.84820306945594     -0.77096921215059
  C   -1.12107789019563      2.11006727227921     -0.92024890134880
  C   -0.02032851630371      1.50201711301256     -0.18788349977361
  C   1.00788076465002      2.27943847864819      0.25983629275519
  C   2.14721002805561      1.84843381006827      0.99992076672701
  N   2.79121773577707      0.72158107548569      0.94286034797365
  C   2.45560330133844     -0.26226412183519      0.06875665496726
  C   1.22525034093179     -0.61281278463881     -0.39801403156186
  C   1.13259267672738     -1.65953699920018     -1.34696904979084
  N   1.04812434020943     -2.48545347685909     -2.15940165654389
  C   -0.03269187543962      0.05715209146812     -0.00773760875461
  H   3.29626692526094     -0.86568962801641     -0.25581214654996
  H   2.57256970578806      2.58328176397284      1.68005671954808
  H   0.88911021653218      3.35235097651639      0.15693324591355
  H   -0.83667924565065      2.89135076450868     -1.61576027617063
  H   -3.11807439643377      2.46389685011103     -1.34378364962031
  H   -4.10077150576822      1.02064488377677      0.28362284385721
  H   -3.08849695430518     -0.88021691053751      1.19614476910599
