31
Coordinates from ORCA-job ./opt_b97-3c_parallel
  N   4.06080002794334      2.47769674342766     -1.90350112460184
  C   3.41789579860538      1.72607391981931     -1.29336175623061
  C   2.61589426704730      0.82418937185761     -0.54971093089086
  C   1.29686525385640      1.26625030403245     -0.19015962724354
  C   0.25831344225079      0.44853181213689      0.10825267460057
  C   -0.99947564441678      1.01788291616951      0.60930283791038
  N   -0.88293953203258      1.99647817441130      1.53090562331470
  H   -1.69594194092814      2.39170927427369      1.97394686075616
  H   0.00615215001976      2.14884779864490      1.96825590214915
  C   -2.24057212225129      0.61428437320620      0.14746411752488
  C   -3.36402447939455      1.25321785779777      0.70465553451654
  N   -4.27102100189011      1.80606914238239      1.18391909653892
  C   -2.48193024162814     -0.34248161510291     -0.92600478822611
  C   -1.69343587548637     -1.41632917602870     -1.22130845302362
  C   -0.51408122454771     -1.84002285174893     -0.53668851171710
  N   -0.28238373576832     -3.22184622043875     -0.51611095000443
  H   0.68419448279331     -3.48894042221752     -0.62340256616881
  H   -0.87058018271536     -3.74220455230616     -1.14503549797968
  C   0.35599133446362     -1.00574172829241      0.09942951310841
  C   1.47180736770802     -1.51342542917000      0.93040204455456
  N   2.73502972434594     -1.27693796440457      0.71998198190641
  C   3.19626152651377     -0.35985754976242     -0.15213197677045
  H   4.21351017736321     -0.54014496517119     -0.48058148851537
  N   1.13111649178253     -2.25522284178973      2.00779050482828
  H   1.87479750490928     -2.70123836392847      2.51884516773669
  H   0.23497462155966     -2.71023522410505      2.00413365861527
  H   -2.03365779076888     -2.05858277265100     -2.02730109899843
  N   -3.61931588074927     -0.11025997502046     -1.66650045834956
  H   -4.30933063008300      0.50976733709308     -1.27834392732241
  H   -4.01505335803297     -0.89844158090184     -2.14807660089214
  H   1.12851450863129      2.33613613038792     -0.19743629332644
