26
Coordinates from ORCA-job ./opt_b97-3c_parallel
  N   0.99524564720806      3.47798154872905      0.68867803006640
  C   0.36560644973668      2.51827016330039      0.50203370490977
  C   -0.45720200132091      1.37887728481821      0.30843741748606
  C   -1.84526420031710      1.61527463469782      0.40491418722408
  C   -2.90655309909794      0.81302130143434      0.12545115816930
  C   -2.86403181143188     -0.54589403300821     -0.28417929440214
  C   -1.75063596438526     -1.36548572070065     -0.30782975801895
  C   -0.39113454261300     -1.12935099693964      0.00426039237632
  C   0.37324130255787     -2.24557227242677      0.36898729369578
  C   1.73604142035750     -2.37750857439244      0.63421854403543
  C   2.77388959550228     -1.51588290872246      0.39033824110941
  C   2.59665895905519     -0.30299870036785     -0.32092304028706
  N   1.48455844124954      0.38258039447131     -0.45071735652864
  C   0.23140902258102      0.19206492618553     -0.04065075061792
  N   3.66824781702454      0.22961000074770     -0.96764192134357
  H   4.58387745619294     -0.14600603785078     -0.80840656499744
  H   3.60352623974867      1.19478277069684     -1.23906002579613
  H   3.78292169790480     -1.84249010824615      0.60565860969991
  H   2.01663197312391     -3.33365678989864      1.06260436980613
  H   -0.20624625015746     -3.14408112840895      0.54132681376184
  H   -1.96359921416424     -2.40536151442710     -0.53416508387389
  N   -4.06573678531921     -1.08509988783742     -0.67699590806436
  H   -4.14165980674208     -2.08580494284778     -0.71945567033275
  H   -4.90444076401539     -0.62175003756092     -0.37625017041679
  H   -3.88808828206646      1.26484677249199      0.19627281158574
  H   -2.09509572151204      2.62751634956293      0.69708677805414
