29
Coordinates from ORCA-job ./opt_b97-3c_parallel
  N   -4.25172752985135     -2.09961013482157      1.45253884135673
  C   -3.44284613637653     -1.44623810014380      0.92665425572569
  C   -2.50201666718222     -0.60555183209762      0.30200427732878
  C   -2.81732023187727      0.75063006391132      0.20946659872931
  C   -2.04213027283016      1.73560232447323     -0.47285713419021
  C   -0.70387108528295      1.75287487939836     -0.73950647455052
  N   -0.14671517553489      2.86523355657110     -1.31255383046818
  H   0.72756124476011      2.74169481392761     -1.79187219388377
  H   -0.76220617744708      3.54361336228845     -1.72773499905913
  C   0.24818582258596      0.69564282715016     -0.37159700638491
  C   1.48471448810036      1.04586427969517      0.06458231558425
  C   2.58049684098048      0.18442190952274      0.39596652080819
  C   3.60424301198853      0.71257402598586      1.20975943840642
  N   4.47469165998569      1.10534013797515      1.87583918627319
  C   2.74478317218897     -1.11882098769216     -0.05621141136518
  N   2.04699978155047     -1.69329731843011     -1.09355173962589
  C   0.80474870191915     -1.51277205143491     -1.33612660511350
  C   -0.16602999235610     -0.68910364961590     -0.60869212458109
  C   -1.37287993176243     -1.22626213723068     -0.31899849920910
  H   -1.49824301879819     -2.28038800493383     -0.54193781855164
  H   0.43034765037062     -2.04551205358232     -2.21018121360050
  N   3.71159359248971     -1.93271183832862      0.42932946760512
  H   4.40016918362418     -1.56380283350254      1.06247004374751
  H   3.98140260889730     -2.71009599215290     -0.14595846730580
  H   1.66622563965538      2.09603396291606      0.25123942111077
  H   -2.60094838669859      2.61665832553210     -0.76987767626532
  N   -4.02730973889443      1.18606111190206      0.66499833182499
  H   -4.13304565613950      2.16091466412275      0.87720825078735
  H   -4.58642809256138      0.55934501819480      1.21942682886920
