28
Coordinates from ORCA-job ./opt_b97-3c_parallel
  N   -0.60791874400540     -3.05835050746964      2.07418120706683
  C   -0.16585372608345     -2.18725864542583      1.44452831925759
  C   0.38732530926270     -1.09493799105133      0.73435008183032
  C   1.73041181044850     -1.15903493256713      0.42881214908702
  C   2.56231138767018     -0.22563838438912     -0.19928593601271
  C   3.83510773107758     -0.67040364923234     -0.61874717750015
  N   4.89888729368043     -0.96265946786798     -0.98838601429893
  C   2.29932158937327      1.16189703914518     -0.33817450357764
  N   3.25192023705639      1.93717965139599     -0.89726804614264
  H   4.14806635774605      1.55805208714226     -1.15038703743838
  H   3.13802576207784      2.93178713943314     -0.94155496203000
  C   1.16259796439670      1.82235858349934      0.17110520240710
  C   -0.06676840855993      1.33939751908431      0.54754258699227
  N   -0.88064108158323      2.20052146987138      1.21880666198761
  C   -2.14952989968767      2.39675377234329      1.01784446780644
  C   -3.01427042919131      1.81820503315029      0.08323687817325
  C   -2.84932777186902      0.57663083035312     -0.50363956399811
  N   -3.80350654203054      0.11700904216869     -1.34665423056727
  H   -4.66450040490725      0.62424292428984     -1.43482772620112
  H   -3.82503487243404     -0.85291015041070     -1.61226222030972
  C   -1.75101951847051     -0.33168812845760     -0.20858561639262
  C   -1.97055425344946     -1.66381991962370     -0.63503253113157
  N   -2.23145328858029     -2.70455290048055     -1.08226412696673
  C   -0.51322440322363     -0.02994800763559      0.33557823640994
  H   -3.96310701033004      2.31656472759025     -0.07078667761326
  H   -2.59118375727132      3.14430933515784      1.67281617875839
  H   1.25760584750375      2.89456238806112      0.29915458402681
  H   2.20574128528252     -2.10091116127389      0.66891021667793
