29
Coordinates from ORCA-job ./opt_b97-3c_parallel
  N   -5.12378206496639     -1.70910147851909      0.23675131749783
  C   -4.00456925042776     -1.39123582167312      0.25117530944440
  C   -2.66459524509820     -0.94603193300562      0.23652993896554
  C   -1.70447036277010     -1.80981033616674      0.76222215916033
  C   -0.33269855422964     -1.74979754476181      0.75924047150897
  C   0.53630569283643     -0.74642587509467      0.29657656148020
  C   0.09740071332068      0.64227720754734      0.18021273087030
  N   0.88448303869484      1.65848102980111      0.49357780546405
  C   2.20625158083518      1.74228020038790      0.53125634579854
  N   3.13553355676618      1.02650873322743     -0.11545056500509
  C   2.95078579579817     -0.24258551314598     -0.42713942752406
  C   1.85857270916774     -1.10848033838544     -0.03772497578244
  C   2.14739595270512     -2.48522604993233     -0.11864198025247
  N   2.44258350505555     -3.60742170342472     -0.21969528077849
  N   3.94972500995628     -0.79719480702130     -1.13783794683151
  H   3.97709725465215     -1.78159426099938     -1.33396993573562
  H   4.78020451990890     -0.25082481995222     -1.27796237168211
  N   2.68584131703980      2.78015775052307      1.24640453649534
  H   2.04424731246444      3.49642774775758      1.53429124266208
  H   3.66023989438141      3.00424801615557      1.16381728719858
  C   -1.19156952162791      1.03273214310191     -0.27392971775458
  C   -1.26395506494365      2.39393579621274     -0.66030069876181
  N   -1.44272919728374      3.48387853839914     -1.02485924701806
  C   -2.42899314498504      0.33528718758664     -0.33196970021832
  N   -3.47465090800881      0.96342833631073     -0.90171179810128
  H   -4.39542846406907      0.56379808740564     -0.84910090865612
  H   -3.39479865360767      1.91729442544879     -1.20892465593159
  H   0.15340410499095     -2.64949582603450      1.11124064910881
  H   -2.11303037085690     -2.72255382755084      1.17627836697790
