23
Coordinates from ORCA-job ./opt_b97-3c_parallel
  N   -5.14665510000382     -0.49732882055118     -0.35446727246042
  C   -4.00034472536616     -0.41316853539409     -0.18624572442889
  C   -2.60243001328862     -0.34780938284808      0.02422382338999
  C   -2.01948127915539     -1.34657846730519      0.85627195209521
  N   -0.77432610314394     -1.67230902793468      0.94122001224407
  C   0.29376567844449     -1.17992047139781      0.27397351548088
  C   1.19715967611517     -2.05295610652354     -0.29405184670084
  C   2.46317091139830     -1.74374989928506     -0.82623564937879
  N   3.25728169302628     -0.72429127656440     -0.62177323188595
  C   2.88245783651306      0.28619332010545      0.21851367138802
  N   1.68693701489707      0.81475079955549      0.40189719891016
  C   0.50878594243602      0.26203670764130      0.16554986814694
  C   -0.55916001603614      1.10362447625144     -0.23923976005125
  C   -0.19108729707576      2.42772338818842     -0.59676488330011
  N   0.07999663914566      3.51658722712031     -0.89386762360129
  C   -1.90708705689231      0.76677457085567     -0.41668136528636
  H   -2.50450301978956      1.52899930057836     -0.89864849912232
  N   3.90529115466139      0.87810451301137      0.85079914768632
  H   4.84109543244187      0.61563153093392      0.60094520461093
  H   3.74606343050278      1.73724176855219      1.34533507646496
  H   2.89573353633908     -2.51088518295518     -1.46318311516741
  H   0.87932629693692     -3.08532051713796     -0.36699499826771
  H   -2.69384031870819     -1.89430348869766      1.50821749643424
