32
Coordinates from ORCA-job ./opt_b97-3c_parallel
  N   5.40217942148473      0.91440517361857      0.68732583863305
  C   4.29111650235325      0.68269810543508      0.42266186484782
  C   2.95818275685735      0.38386842057203      0.09906221203634
  C   2.25560012621926      1.31402054657387     -0.73354119063438
  N   0.95475159596528      1.48155377835485     -0.79935748614947
  C   -0.03625507630028      0.73268932687157     -0.33703885904447
  C   0.03617158837071     -0.73262679900351     -0.33731522386951
  N   -0.95484066844134     -1.48131803138352     -0.79990210766245
  C   -2.25568839819920     -1.31380767862209     -0.73400963262642
  C   -2.95826174424300     -0.38396807739202      0.09895048247159
  C   -4.29119248799646     -0.68291804359639      0.42245169106065
  N   -5.40225197824034     -0.91472533073402      0.68704195675941
  C   -2.45638332587999      0.86931821387372      0.49561301744817
  C   -1.17927679011052      1.40569613970011      0.11830084114184
  C   -1.03101841020761      2.80279135229595      0.27706216186819
  N   -0.99368158299414      3.95117006853488      0.45663430554333
  N   -3.25678579517539      1.67083101797878      1.22139679654112
  H   -2.98165426459108      2.61580575407504      1.42473486988638
  H   -4.21612752483145      1.42017614376768      1.38588129147553
  N   -2.98320653210193     -2.17265489597836     -1.47936391665089
  H   -2.51186674149884     -2.98171273748059     -1.84299938702596
  H   -3.98300851952559     -2.20831617877144     -1.39361951284536
  C   1.17919875576639     -1.40580413551877      0.11775864571810
  C   1.03094286832890     -2.80295937065078      0.27599360337639
  N   0.99359772818440     -3.95140193084563      0.45515576830945
  C   2.45630999151644     -0.86956805857116      0.49525694700140
  N   3.25672182487660     -1.67135430740760      1.22072824854271
  H   2.98159215426787     -2.61640475398028      1.42371646096149
  H   4.21606520204859     -1.42076085870267      1.38529650976901
  N   2.98311031561999      2.17314781160193     -1.47857960256722
  H   3.98291367676966      2.20877302912001     -1.39283703123975
  H   2.51176738390777      2.98233953596478     -1.84191284377604
