30
Coordinates from ORCA-job ./opt_b97-3c_parallel
  N   4.81099525945219      0.28121373971779      0.76713119115102
  C   3.76068909382764      0.00621495229587      0.34474451067534
  C   2.46051797701033     -0.26521326939595     -0.13257514643958
  C   1.41952248226790      0.45808190732985      0.43518158475862
  N   1.62904333567048      1.27582154723578      1.49843578019548
  H   0.96687012386284      2.02219467767571      1.63146515698081
  H   2.57681592850058      1.47099265487117      1.78113388042059
  C   0.04466188401482      0.36463656823130     -0.06430154374857
  C   -0.70418995585548      1.47653474805707     -0.36011543042333
  N   -0.08955318519434      2.74142857400574     -0.34397611451952
  H   0.82508912088154      2.75700623877709     -0.77082807951538
  H   -0.66929698204320      3.46916510782338     -0.72826601058358
  C   -2.08850263255736      1.45683715313269     -0.68261854263651
  C   -3.01126171148133      0.51160705360862     -0.30767791798779
  N   -2.83564357578764     -0.51397317403998      0.57577272371151
  C   -1.72422488859190     -1.16227195062884      0.70309446010448
  N   -1.63367336580259     -2.10533861697084      1.67404046219556
  H   -2.34145519320683     -2.11558890543906      2.38925254164617
  H   -0.72763914056374     -2.46507076856123      1.90872292998546
  C   -0.51588507418372     -0.98104381380181     -0.13887203206832
  C   0.01921333103178     -2.01817508344569     -0.81569969850453
  C   1.27134662132685     -2.00409583575579     -1.50590331284227
  C   2.34000659630437     -1.23661400039888     -1.18997199482083
  H   3.25942011718416     -1.42708880050578     -1.73057048170792
  H   1.41232577099472     -2.75098004869063     -2.27755809526291
  H   -0.52930436417521     -2.95468059561214     -0.82173821596232
  N   -4.30728324181401      0.57740235083545     -0.77806633558872
  H   -4.61716990027109      1.46903045080056     -1.12496063386622
  H   -4.97635138328275      0.11690052665597     -0.18443806140929
  H   -2.46212206861774      2.30192685299443     -1.25136089093715
