31
Coordinates from ORCA-job ./opt_b97-3c_parallel
  N   4.27988055166182      0.22698809581466      0.96407422126718
  C   2.95661755261618      0.33730236302225      0.52656041912101
  C   2.58938835351451     -0.62825476086670     -0.46957869412613
  C   1.32942608621267     -0.97911248658935     -0.84002817532443
  C   0.11308466604284     -0.49628469934284     -0.15629606384359
  C   -0.82704434522234     -1.36847507205113      0.29630693973112
  N   -2.04608074591834     -1.08082448804044      0.85224373207797
  C   -2.78394247765915     -0.07033196261156      0.48621935020557
  C   -2.49288144004150      0.99133024055100     -0.43501724270998
  C   -1.25445932290227      1.51341767194616     -0.66439672831900
  C   -0.03076755998784      0.95875560482776     -0.08213152838789
  C   0.92460301015859      1.77849608942150      0.43224087966252
  C   2.20321909076821      1.40956078204452      0.92360121479513
  H   2.67359903321818      2.11271634426819      1.60394425184143
  H   0.67503615578418      2.83187457654723      0.51351268304756
  N   -1.10237371099414      2.65683442348306     -1.40752043071095
  H   -0.19950136484002      2.78793031536847     -1.82944882588342
  H   -1.87776453413038      2.94951563689852     -1.97899888365701
  H   -3.34926743847102      1.47400932440423     -0.89351231747467
  N   -4.07291630609187     -0.06468193020135      0.98700088684738
  H   -4.20943271918112     -0.72845614025377      1.73205692911615
  H   -4.47813354128165      0.83876623870644      1.16387627154458
  N   -0.59570331043895     -2.75813416514023      0.22977747001678
  H   -1.27626208018715     -3.23777009309107      0.79919157263649
  H   0.34114825839391     -3.01628783436856      0.50757858164925
  N   1.10396642477149     -1.77267533130742     -1.94535492451459
  H   0.28415095701460     -2.35730709163392     -1.88031295666523
  H   1.90545465483286     -2.25281925882670     -2.32247089979687
  H   3.42028123463866     -1.07223221851509     -1.01134998368563
  H   4.59300433593552     -0.72232182117996      1.08940837231243
  H   4.49512330538444      0.78813068631583      1.77223991252599
