28
Coordinates from ORCA-job ./opt_b97-3c_parallel
  N   -5.24742893552192     -0.12767611195145     -0.29489066033194
  C   -4.09167828716142     -0.09535387515127     -0.15804879180202
  C   -2.69253022724947      0.02584583400677     -0.02381611365098
  C   -2.00486020361794     -1.06391699516832      0.50928445325591
  C   -0.65341685197931     -1.31917457913186      0.63389642255718
  C   -0.32753052946745     -2.59725805722454      1.15175228987207
  N   -0.04459894702517     -3.64572007487649      1.56796169407719
  C   0.46575025480528     -0.51374089970885      0.18695048858545
  C   1.61910728959179     -1.15359087507847     -0.17644812566192
  C   2.86964083638464     -0.59745657141388     -0.59528553780810
  N   3.38711535663751      0.57961645780499     -0.31468514846431
  C   2.69435786686740      1.47634799424553      0.42390977359932
  N   1.40355542858550      1.72153370736252      0.49962161464680
  C   0.36000043997998      0.95000854406663      0.15407541411701
  C   -0.78574573247362      1.65183348064350     -0.19552388487752
  C   -2.11991284427676      1.27486194457185     -0.38850437995656
  N   -2.94831816412149      2.21443879818397     -0.90466421760034
  H   -2.61911369504729      3.15089160213822     -1.04298309023127
  H   -3.94332909086790      2.07142190101763     -0.90972880309188
  H   -0.58992398470157      2.71112210985736     -0.31194656715843
  N   3.48673007446090      2.31807112599549      1.12967920138199
  H   3.07652234797918      3.15061914967198      1.50998888919411
  H   4.47263262097135      2.30110432484717      0.94720214145841
  N   3.65626021187636     -1.41252785613291     -1.33450298918980
  H   3.40769197085964     -2.37001914985596     -1.49431745307652
  H   4.60395001211847     -1.12831022871881     -1.50552148907100
  H   1.57281768442994     -2.23409377229770     -0.21026324086251
  H   -2.64370242320735     -1.87257395624883      0.83855639680287
