32
Coordinates from ORCA-job ./opt_b97-3c_parallel
  N   -3.91368639263914     -1.79230319820089      1.70124767885068
  C   -3.08798546199515     -1.19725922126624      1.13007791949530
  C   -2.11819994828735     -0.46821395865840      0.42239587541402
  C   -2.41396822988718      0.86620169052855      0.12403067175720
  N   -1.73750883459137      1.70160823318089     -0.70193964033200
  C   -0.43806741933930      1.71963675405581     -0.81736482865217
  N   0.08274883985709      2.57537980385747     -1.72561719410801
  H   -0.52763186729320      3.26623728468291     -2.12790591334292
  H   1.06478330031134      2.78396852817615     -1.67684021030962
  C   0.49758182812203      0.85697298496319     -0.08907252702026
  C   1.63361639070199      1.33312235998389      0.50745888485565
  N   2.60658523652197      0.58399376809857      1.09475107568991
  C   2.93230298961607     -0.61517086504757      0.68258662167629
  N   2.58892542458932     -1.28904211616165     -0.45785864675440
  C   1.37385075671568     -1.26314275646285     -0.92170459510609
  N   1.13051349115564     -1.85532102845706     -2.11335645309931
  H   0.17891726230917     -2.10699788593627     -2.31983591313496
  H   1.85425339196113     -2.44119899111175     -2.49510077772322
  C   0.25013853444736     -0.57416112622715     -0.26273490597383
  C   -0.94253639430940     -1.18150478058686     -0.03113742005670
  N   -1.10616695552427     -2.55296775886855     -0.28196624920640
  H   -1.97705708120846     -2.92446298920097      0.06442535828453
  H   -0.33725873230822     -3.11808408519587      0.04416629899472
  N   3.83341462044156     -1.29755316617060      1.44887719134453
  H   4.34090586608539     -2.03078067781567      0.98754530848227
  H   4.34013801288128     -0.74978878935758      2.12211269759202
  N   1.89896812238725      2.70808003218677      0.58166131674671
  H   2.64398335618833      2.87803862563824      1.23961184263429
  H   1.09289914431539      3.27406458051803      0.80008420919256
  N   -3.53904226436032      1.43939441983356      0.63798218439487
  H   -3.85150447172709      2.26816069253502      0.16507020532233
  H   -4.25326430043931      0.84851980928294      1.02867658669130
