33
Coordinates from ORCA-job ./opt_b97-3c_parallel
  N   -4.83272561999874     -0.44467941303204     -1.52898189906334
  C   -3.86078416295203     -0.18283473440269     -0.93984016672157
  C   -2.67645851186138      0.08594199125273     -0.23005369280368
  C   -2.75505657775114      1.06503932868111      0.84297245998711
  C   -1.72165740111842      1.86393771815631      1.26508350677681
  C   -0.40590362215834      1.88246021201248      0.76199865266536
  C   0.27662990576750      0.84788811915937      0.19202611671032
  C   1.56901847009832      1.08715822436465     -0.41924059710617
  N   1.73148591239027      2.25149844124143     -1.08199429643856
  H   2.60484234410135      2.46411254007930     -1.53579274511963
  H   0.91617923526491      2.74573891279177     -1.39342950661957
  C   2.63935450984473      0.20557436848759     -0.28721059354851
  C   3.83897473933409      0.51578450729843     -0.94621576573064
  N   4.83094784509540      0.79849469384663     -1.49133379383739
  C   2.65970931602279     -0.87216841953421      0.69971081510610
  N   1.67776889173572     -1.63425745466522      1.08739566272712
  C   0.42672764429612     -1.61283079092751      0.54165936599022
  N   -0.13086595913458     -2.89419553097072      0.48221535082936
  H   -1.11493314919110     -2.93675225158069      0.70022343952091
  H   0.39964013594578     -3.53353832759097      1.05256159243069
  C   -0.26342931533717     -0.51672714928819      0.10576474843128
  C   -1.54885786902902     -0.64990481016673     -0.57660190322300
  N   -1.59852642311462     -1.52181206581347     -1.60863146751865
  H   -0.85731944624779     -2.19549919210756     -1.68969706562694
  H   -2.48076732235772     -1.75974750344453     -2.03215867655330
  N   3.86328329074904     -1.10903826749093      1.28133308971649
  H   3.96380762218923     -1.96953727700604      1.78906093959075
  H   4.69481853570723     -0.66813999269110      0.93352557717280
  H   0.12937896306733      2.81901249219487      0.88208080007643
  H   -1.97121921796910      2.63183402807481      1.98884461325464
  N   -3.99839929561808      1.21637947326642      1.41061859532532
  H   -4.17607785868139      2.08280357982445      1.88777838689555
  H   -4.79187078588891      0.86509636657964      0.90141267520338
