23
Coordinates from ORCA-job ./opt_b97-3c_parallel
  N   -4.25223860493023     -0.04458774528966     -0.62931417118628
  C   -2.96704203383644     -0.09717672891996     -0.18093202824607
  N   -2.35373410148204     -1.23212503104886     -0.31605146610737
  C   -1.08840490399038     -1.46988016208762      0.12358739495007
  C   0.01007246191610     -0.66833384623026      0.24594840398329
  C   1.20902022575325     -1.36304922210171      0.66250127688606
  N   2.45514122285442     -1.06710735372461      0.54932542897027
  C   2.89979080427533      0.04690506456764     -0.16897598763873
  N   2.40804916241244      1.24140826387857     -0.29037629494849
  C   1.13978542346855      1.56978269048962      0.07260839475802
  C   0.01370988171731      0.80801802062929      0.21248628976196
  C   -1.19590263119660      1.52669890824055      0.50435366120619
  C   -2.48456418073428      1.13948278447866      0.42062662313218
  H   -3.24399847465023      1.86394210938162      0.68907466148985
  H   -1.04180910577260      2.55425364743546      0.81892171347063
  H   1.00641339189469      2.64200164998640      0.18178889335010
  N   4.08371007755498     -0.21822469393654     -0.77058477128420
  H   4.60630761508086     -1.01261234184694     -0.45157072909857
  H   4.57451987700232      0.54922694025890     -1.19242677661664
  H   1.02981107746122     -2.31611782762149      1.16168525148136
  H   -0.92158424311132     -2.52537330531984      0.32343340182800
  H   -4.55631414271163     -0.82344929165406     -1.18895686378470
  H   -4.66965160967510      0.84645129903528     -0.82672061245792
