28
Coordinates from ORCA-job ./opt_b97-3c_parallel
  N   -0.88820607421357     -2.06240816380219      1.64808260743197
  C   -1.17466664674597     -1.08556772246859      0.72874426618789
  C   -2.45823278922751     -0.76585762147241      0.41714543687104
  C   -2.85492858422085      0.35362609120553     -0.39993240046561
  N   -2.29297700641959      1.52745601767968     -0.47886487178944
  C   -1.12049115326218      1.84788658549037      0.11789834259916
  C   -0.01740356084383      1.07680559170375      0.35330897988963
  C   1.14927039399785      1.71953030374829      0.89062896609637
  C   2.43560154553541      1.35504400449204      0.71574526156271
  C   2.89805220940119      0.36796922362697     -0.24425685989486
  N   2.26902547714005     -0.63342425462858     -0.77695947985567
  C   1.03459129964661     -1.08497050129983     -0.35935167525092
  N   0.93455265779041     -2.47948200018540     -0.52944067366297
  H   0.04529569179672     -2.77723099177736     -0.90446901339695
  H   1.69312511110607     -2.80410695887381     -1.10862581085562
  C   -0.00489146561210     -0.37914676162952      0.16007199917069
  N   4.20589497607631      0.52995331924468     -0.63010279780498
  H   4.47360870899126     -0.01392669940145     -1.43364938674769
  H   4.59501984274013      1.45565520274255     -0.59085795804368
  H   3.20538837675568      1.94317215328223      1.20049356695341
  H   0.97720309730223      2.61657408178064      1.47956498777702
  H   -1.03628535586044      2.90535436094360      0.35707637425666
  N   -4.00456892993165      0.18449940708186     -1.13470492906548
  H   -4.45110026046166      1.03668165511698     -1.42961280151338
  H   -4.62194718280059     -0.56504875479567     -0.88012455807167
  H   -3.25766100329699     -1.37794252735419      0.82609317486771
  H   -0.00831636009893     -2.53690362010872      1.51674811973369
  H   -1.64327445308289     -2.66895507114166      1.92312407001945
