25
Coordinates from ORCA-job ./opt_b97-3c_parallel
  N   -4.52812718730309      0.06097976684098     -1.18972198472749
  C   -3.47090790202652      0.13770074828829     -0.71151596437551
  C   -2.20145046140724      0.25739020128235     -0.10169927169285
  C   -2.12027412039039      1.13622945001658      1.07964259799028
  N   -1.11252483117065      1.77405116021809      1.53324801163773
  C   0.09453332799175      1.80441642018030      0.84255308481747
  C   0.72239505479737      0.77758367790948      0.24968605236887
  C   2.00581052533879      1.01145699252087     -0.46790613606925
  N   3.09004693483604      0.31811341295149     -0.33552190183400
  C   3.17834319421384     -0.83581415370607      0.36596747764242
  C   2.23502360669936     -1.78848698389726      0.59274785013869
  C   0.85033353372448     -1.73022610646322      0.24513954896406
  N   0.19342099674825     -2.93709538049733      0.12173875661475
  H   -0.75518924084825     -2.99042825212123      0.44818640789765
  H   0.72972261831415     -3.76236421584456      0.32093181264451
  C   0.13809737369455     -0.55788735478437      0.05591444704836
  C   -1.19665534465158     -0.60248594338750     -0.44841772404933
  H   -1.44048808375885     -1.39957468142541     -1.14774183266089
  H   2.58038121931807     -2.70470866466814      1.05688884131965
  H   4.18563143549104     -1.05554853090570      0.70448583768749
  N   2.02275481262535      2.06995310024533     -1.31271171702359
  H   2.81584513102250      2.16672029020781     -1.92431914498326
  H   1.15669040497264      2.48980032879877     -1.59327952780447
  H   0.57863686898065      2.77367569588676      0.87937067954248
  H   -3.04530433041188      1.22116103505388      1.64790481380571
