27
Coordinates from ORCA-job ./opt_b97-3c_parallel
  N   -0.27267852293390     -3.54573409332375      0.82197851967612
  C   0.07019702350089     -2.45244917045766      0.61278668173695
  C   0.59334698727267     -1.16134910151244      0.39029821804392
  C   -0.36144579635882     -0.16301498985182      0.07188075298119
  N   -1.51855700407055     -0.58824107557504     -0.39572741073705
  C   -2.71722155529182     -0.01258011334631     -0.44407645707706
  C   -3.15569586529527      1.07399262992785      0.32336994552820
  C   -2.29119111015420      1.90390310456184      1.01333764144990
  N   -0.98481187149583      2.03637572708469      0.92690351483032
  C   -0.08671253752463      1.27436712832941      0.27409562246820
  C   1.07668953516981      1.88620025588294     -0.14340415892432
  C   2.33004074677555      1.32033909911782     -0.43331282857545
  C   2.74725773594617      0.01609048383810     -0.18265485389205
  C   2.01185951628532     -1.06738048334842      0.29499778890501
  N   2.72275461568049     -2.17917615538044      0.64804044266344
  H   2.23302814874091     -3.05240622058374      0.75049908681758
  H   3.67171247399679     -2.25385123204814      0.33089144873832
  H   3.80272673069269     -0.17649694768260     -0.33942342793049
  N   3.26824669755682      2.17900757561625     -0.95980182477121
  H   3.08198919509337      3.16297738697953     -0.88318446825357
  H   4.23696158066617      1.93978487325444     -0.84153360074465
  H   1.03402256077321      2.96911278366291     -0.11921753060917
  H   -2.74832134760299      2.59776592386993      1.71541220765001
  H   -4.21856375353073      1.25965174628247      0.40981030274816
  N   -3.58346399646270     -0.62490720976602     -1.30024663657014
  H   -3.35599228914776     -1.56724036208364     -1.56562905305474
  H   -4.55849396038131     -0.39309502014489     -1.25242994519407
