29
Coordinates from ORCA-job ./opt_b97-3c_parallel
  N   5.62009722579343      1.03324193531500     -0.41167584075723
  C   4.46138192331796      0.93413312793630     -0.37274485593877
  C   3.06232518118354      0.75706468652853     -0.29202003497570
  C   2.61510793414572     -0.43139417482405      0.35169751361892
  N   3.54811251518637     -1.21345934264660      0.92892717500620
  H   4.52443588686368     -1.00091845041097      0.81977997964816
  H   3.30609333151530     -2.12451818500446      1.27809856396702
  C   1.27160396023789     -0.89454315008570      0.36093213237658
  C   1.09820247482251     -2.22700781840249      0.80481943655622
  N   1.05505100553333     -3.31612795807411      1.21051129208621
  C   0.08508086633841     -0.28426342145359     -0.12368862755050
  N   -0.88081385822434     -1.11659119234834     -0.46384160763909
  C   -2.18857760223829     -0.95036456250427     -0.59948549329604
  N   -2.80092591338047     -1.92068700076542     -1.30780930829191
  H   -2.27731967306605     -2.75724755893140     -1.49363451007548
  H   -3.80305856870137     -1.96434933620845     -1.36069682601672
  C   -2.97885895550748      0.07576116126827     -0.02015029962969
  C   -4.36560161307198     -0.10126339384436      0.07339587329979
  N   -5.52022857798270     -0.24439792604412      0.15124729292638
  C   -2.40521278803099      1.28217005887937      0.45424594185149
  N   -1.20673841552666      1.76967225664159      0.14950221099962
  C   -0.09031685454860      1.17224866810544     -0.22877460800444
  C   0.91628021113538      1.99393406659037     -0.76265588730883
  C   2.27097224858705      1.78081767751353     -0.81768456860393
  H   2.83838529853001      2.58444084095238     -1.26930744654760
  H   0.56712582886222      2.96597825915893     -1.08469472401907
  N   -3.15382638203368      2.09297522832275      1.22910591077581
  H   -4.11669138163966      1.88312096888195      1.42273391138246
  H   -2.82459387349965      3.02851446735501      1.38228441206256
