27
Coordinates from ORCA-job ./opt_b97-3c_parallel
  N   1.16323518715940      4.06800748807206      0.63223520708777
  C   1.06575445713167      2.93091091281905      0.41868205009090
  C   0.98731020778218      1.53271761166609      0.18852503181906
  C   2.10313408561693      0.78174086699911      0.57144547987117
  C   2.42586048018518     -0.53483546258032      0.30694369952521
  C   3.68751354859528     -1.02349573405509      0.70487799002548
  N   4.71721393195933     -1.48335747175308      0.99107201389494
  C   1.60623285637451     -1.40385952516764     -0.50453038458880
  N   0.30833944312456     -1.30480000751037     -0.66186916787650
  C   -0.55341418927313     -0.35881850263908     -0.30632178709291
  C   -0.23305133852602      1.06744051797642     -0.36647605232310
  N   -1.04647423636242      1.96062089449061     -0.90003986234050
  C   -2.36293116436723      1.97530585242072     -0.97052412839744
  C   -3.28274155014153      1.19187345954733     -0.30807844936693
  C   -3.03639726211939     -0.06198030198953      0.27152068050886
  C   -1.81743756474429     -0.79944893714873      0.13956256178692
  C   -1.88792222265814     -2.16918001868551      0.48029804491306
  N   -2.04723663258539     -3.27738049950450      0.79562091599546
  N   -4.06159871969664     -0.67025024779133      0.90128836551215
  H   -3.99644423786661     -1.63158208417353      1.18968688654200
  H   -4.97267421429208     -0.25156647476649      0.89978806180036
  H   -4.30879272304442      1.53683647282799     -0.31169330944044
  H   -2.75908563751967      2.77930728185970     -1.58323873455809
  N   2.20092033879842     -2.43297195356300     -1.13153689578211
  H   3.17428075675826     -2.63522449879484     -0.98843268352185
  H   1.61846907306501     -3.13441068104864     -1.55239082572503
  H   2.86425124444120      1.34249719539156      1.09684853524178
