29
Coordinates from ORCA-job ./opt_b97-3c_parallel
  N   -5.34157825415390      0.08497586577696      0.39017480410344
  C   -4.17988912405444      0.08132851637643      0.32349085691228
  C   -2.77765801755614      0.14228207754220      0.18492879253239
  C   -2.24165125537233      1.18199408998364     -0.65908697692320
  N   -1.01491522360783      1.63326766080796     -0.61303787185398
  C   0.07452762952663      1.17331438217093     -0.01048368371610
  N   0.89151116288776      2.05904871509810      0.50422343088761
  C   2.20828371094299      1.98396160801255      0.66914675732410
  C   3.10019962875336      1.15396062675181     -0.02562400451635
  C   2.79936978414785     -0.06100891256976     -0.62113004823412
  C   1.55136417012233     -0.77362348648108     -0.47478965813993
  C   1.57356443067926     -2.11323925733168     -0.91842297753708
  N   1.67305669013605     -3.18053539863161     -1.37101557798630
  C   0.35061498712642     -0.27037374674601      0.03507635890428
  C   -0.63398838371404     -1.10888415035837      0.62870483093825
  C   -0.18632699980766     -2.30121207520528      1.25247603647144
  N   0.16402235230947     -3.25531062238888      1.81523691033266
  C   -2.00433273245614     -0.85466705097942      0.74912608484065
  H   -2.55149491001379     -1.59298939942260      1.31897159355551
  N   3.77368460884583     -0.68434379352519     -1.32852206570151
  H   3.66942758520585     -1.65302083770701     -1.57924184398089
  H   4.71303495589068     -0.33599824007547     -1.28092647292147
  H   4.13773480857863      1.46407466609409     -0.04867178429704
  N   2.71167582482011      2.89140663610050      1.54180152405777
  H   3.70086698223478      2.99927049140173      1.65863419467375
  H   2.11613527243305      3.64430799844960      1.83482394836182
  N   -3.06935076726346      1.77220464931784     -1.54501449267391
  H   -4.05023102408814      1.55796161581008     -1.55414560724416
  H   -2.75839425745116      2.61163631642725     -1.99841741217320
