26
Coordinates from ORCA-job ./opt_b97-3c_parallel
  N   -0.04984051468274      3.62037052812033      0.37465404493113
  C   -0.32370006205925      2.49184633114106      0.26787642377804
  C   -0.71418724125213      1.14549103158632      0.15237670161884
  C   0.33224081571686      0.18789347739652     -0.03171984696705
  C   1.58391896951457      0.66037811608577     -0.39929757648789
  C   2.86689734227561      0.08116128030800     -0.33136298299375
  N   3.28236196572356     -1.01763155559282      0.30506545259528
  C   2.44781586688519     -1.90149350993293      0.83323671216265
  C   1.07810771550639     -2.05499977791068      0.76790945423994
  C   0.07902676810614     -1.23719087430658      0.20251481934369
  N   -1.06370735636305     -1.84786287677465     -0.06315788994545
  C   -2.25185644016316     -1.32350129915162     -0.37033480333900
  N   -2.81888364315546     -0.16905349194973     -0.03095759158661
  C   -2.11654474126579      0.91280076175423      0.29260233664072
  N   -2.88036066005896      1.92885813953369      0.75249382777086
  H   -2.50162620087791      2.85032109600888      0.87912083226482
  H   -3.87433468587739      1.82604791428073      0.66051355826884
  N   -3.05630678948674     -2.16307982632833     -1.06457147091133
  H   -4.02504717653120     -1.91874228923393     -1.15666433384106
  H   -2.79056715991723     -3.12857171776488     -1.12299716433911
  H   0.69550839225144     -2.99155927246409      1.15296135914074
  H   2.96352060376073     -2.69719947039640      1.36482330476882
  N   3.87603747649054      0.75823220257072     -0.94851498769963
  H   3.74150427112092      1.71001733730794     -1.23612036987670
  H   4.80831084972421      0.48521752779819     -0.69122516003319
  H   1.58856505590809      1.68348775711705     -0.75451239509943
