30
Coordinates from ORCA-job ./opt_b97-3c_parallel
  N   3.51900609805863      3.23744249451388     -2.09691005627423
  C   3.02880611877789      2.38259856429582     -1.48267110954429
  C   2.40177561963959      1.35802397601055     -0.72661548991432
  C   1.12824577465507      1.68251551015584     -0.15154276195752
  C   0.15230834950352      0.82765344776633      0.24333863969436
  C   -1.03084233790459      1.40125596684154      0.84628094134646
  C   -2.32739637791553      1.03611602926115      0.68886907639354
  C   -3.29884649831429      1.79818848151158      1.39201262389207
  N   -4.12852960431413      2.40545881126938      1.93153490657848
  C   -2.85745347015728      0.02376091999964     -0.23448607367377
  N   -4.14075712574250      0.18993866172501     -0.60527246289136
  H   -4.70716447235634      0.92054147130228     -0.21354547722562
  H   -4.59788766988066     -0.49728431484809     -1.18000596719052
  C   -2.12069418829675     -1.05957142461396     -0.68673556284457
  C   -2.80587196327771     -1.98184227417886     -1.50647906215689
  N   -3.42119284371725     -2.71276336738264     -2.17042580674114
  C   -0.78941334669243     -1.42190159679694     -0.28775339490745
  C   0.22274624525141     -0.63699914614022      0.14246311590747
  C   1.43991227946616     -1.28840253248171      0.65616851295761
  N   1.24548967517820     -2.35912499402564      1.44194910495583
  H   0.31943162608392     -2.60498724010270      1.73720551000952
  H   2.02194480743716     -2.85548950809247      1.84903403818810
  C   2.73422863331781     -0.90449955773396      0.30563409507749
  C   3.77835343062262     -1.74106774775270      0.76208717328610
  N   4.58182867891387     -2.47243315894263      1.17708158547746
  C   3.10579092197564      0.20820091283465     -0.49665420971181
  H   4.11275227925987      0.17284614565112     -0.88999781050441
  H   -0.57686614866767     -2.47836415954471     -0.39649509382354
  H   -0.86568568504333      2.26437175736158      1.48098057492171
  H   0.92114387763705      2.74171809154039     -0.05729407432476
