26
Coordinates from ORCA-job ./opt_b97-3c_parallel
  N   -5.00461896001766     -0.65334294472040      0.12514548028026
  C   -3.86694830927697     -0.47148652340053     -0.04252771443523
  C   -2.49750950836970     -0.18583681418552     -0.20042476297122
  C   -2.02451160188741      1.04996419407516      0.30152749862760
  C   -0.73490176084081      1.58347634966909      0.06643234854063
  C   0.42661355595745      0.95665364097658     -0.31605118089516
  N   1.48448830771873      1.73306193412165     -0.66208645914021
  C   2.71472613420077      1.60075161439868     -0.26166368871567
  C   3.22664661579697      0.61375993599256      0.65424663940487
  C   2.71084257587062     -0.62940410275469      0.79154990708155
  C   1.56079801792921     -1.19916236671550      0.16601487108401
  C   1.46579173810956     -2.61304956068974      0.20570317699118
  N   1.43738531577982     -3.77233112024328      0.27040675226169
  C   0.50609785523391     -0.50228350955059     -0.41200989099946
  N   -0.44245711852504     -1.19257424709348     -1.07606981216752
  C   -1.72889854379315     -1.05429393279037     -1.00936210992774
  H   -2.29367559135608     -1.73054334476800     -1.64449084545414
  H   3.27371179146827     -1.31842228223204      1.40830283091755
  H   4.15416781463665      0.84305292052295      1.16198434442802
  N   3.60840261253167      2.52759747125589     -0.71108086161570
  H   4.58282355929697      2.28722737763225     -0.72923326641271
  H   3.28654471420132      3.12717734275112     -1.45203869040997
  H   -0.62711253257378      2.64888245113059      0.23204580811267
  N   -2.89339535002582      1.84402211818892      0.96098058331918
  H   -3.85981829509158      1.58500119518073      1.05859139108992
  H   -2.62580557797569      2.76545170194992      1.24971681010826
