27
Coordinates from ORCA-job ./opt_b97-3c_parallel
  N   -0.85390850086548     -2.97802798122585      0.94722190657770
  C   -0.92312920494761     -1.88549260038301      0.55386898795592
  C   -1.12763311763759     -0.54087510322498      0.16333769814697
  C   -2.50797432736562     -0.09620761866634      0.24650363355809
  C   -2.99778979937812      1.06084324790059     -0.32955345767149
  C   -2.25027842561958      1.98877216000704     -1.06385372200294
  N   -0.97907822457885      2.25375119548942     -1.04075549105977
  C   -0.02346586001314      1.65582549560717     -0.27440400548609
  C   0.92328505323559      2.46498409281048      0.30806723571387
  C   2.10772789205542      2.09469863605015      0.95947891067073
  C   2.80155584252353      0.92055324004499      0.90526139319979
  C   2.49895969992877     -0.20983776284101      0.10102965188233
  N   3.50303504480334     -1.09910325529964     -0.08503391829399
  H   4.44520298619579     -0.84517505050607      0.14170882000306
  H   3.37125962392699     -1.90381440681149     -0.67303813709195
  C   1.23755698230552     -0.49548814241079     -0.45220157923605
  C   1.16042473642799     -1.63298415852875     -1.27821893304175
  N   1.18452193480436     -2.55662462747083     -1.98763086521294
  C   0.00369854590684      0.20163911034360     -0.15739560323410
  H   3.74420105045998      0.87880933825303      1.43659034490861
  H   2.58079206447872      2.88476662533127      1.53138468626324
  H   0.70021486038305      3.52354531238503      0.25867003587354
  H   -2.81819072761479      2.60581428143747     -1.75732992949372
  H   -4.07307518097835      1.18950396872198     -0.34318670356036
  N   -3.37283440799062     -0.92618713347492      0.88284693113954
  H   -4.35796478835101     -0.75945093895937      0.79349268799313
  H   -3.09867165549520     -1.86830188597921      1.10382946939852
