22
Coordinates from ORCA-job ./opt_b97-3c_parallel
  N   -4.77216872418141     -0.91706381330493      0.32776278016203
  C   -3.63322740018901     -0.68504056829409      0.37118520055950
  C   -2.26463478198903     -0.34966812908689      0.37203027704684
  C   -1.87117150355027      0.85807283159583     -0.29654050662111
  N   -0.74533627905669      1.52776617549434     -0.06926678380804
  C   0.38676463258392      1.08972838396778      0.41492668274529
  N   1.22741077058221      1.94552949900799      1.00423305160069
  C   2.51658453826368      1.99415410902080      0.83721618448037
  N   3.28577447685640      1.40984651978129     -0.09601439552481
  C   2.98572651883104      0.24717782006260     -0.63250925341002
  C   1.94311114640909     -0.65943978467451     -0.32799776253348
  C   2.07813039674836     -1.98396251857030     -0.81064669994530
  N   2.20842286760949     -3.06022925525801     -1.22588538232534
  C   0.75026765742955     -0.33323621520225      0.35255904375428
  N   -0.04769166932662     -1.25724346273502      0.85498313255013
  C   -1.35657103661221     -1.20784152198438      0.99161161202209
  H   -1.77597985147041     -1.99683815012349      1.60581586713845
  H   3.70535222407342     -0.10961784529123     -1.36247731628663
  H   3.04879778948030      2.66666763058273      1.50210539652127
  N   -2.73065103781452      1.44145277430645     -1.14147167797019
  H   -2.52828399228425      2.36734161160322     -1.47378640439482
  H   -3.64098457589049      1.05175937605075     -1.31243267401056
