23
Coordinates from ORCA-job ./opt_b97-3c_parallel
  N   -2.00961615315071     -3.17104738586936      1.46013763652450
  C   -2.02317774815277     -2.10376334557909      0.99993829719617
  C   -2.00267669946455     -0.81600626805234      0.41482868487271
  C   -3.22075447717931     -0.17842251999097      0.23432084995615
  N   -3.52229833865624      0.91112991143937     -0.48152331694568
  C   -2.60904017082284      1.74945918126163     -0.92469070837603
  N   -1.38055736733190      1.97641634987288     -0.48239512547645
  C   -0.57282930674285      1.16636954288361      0.14575521274826
  N   0.38832852244266      1.70381771068864      0.91252369884533
  C   1.64090964052520      1.37002068805802      0.94113815393752
  C   2.32910612187127      0.40313352954567      0.17080725234291
  C   3.73605981294051      0.48401188925979      0.13066752174812
  N   4.89688581315666      0.50039056799059      0.05527959372278
  C   1.72968491923116     -0.75047831901779     -0.38759361350047
  N   2.51945972248650     -1.66114290514208     -0.98571812042111
  H   3.51919691318376     -1.55038770530564     -1.00021445219701
  H   2.14719477376141     -2.54239905688380     -1.28637128078375
  C   0.35469043492693     -1.09510657979314     -0.25763886656004
  C   -0.70082290721239     -0.29004286607010      0.05518516357900
  H   0.12450807196040     -2.14042965649438     -0.42567339553482
  H   2.25152230037256      1.93574112826086      1.63835269193087
  H   -2.94269702814441      2.43435480165769     -1.69758632869692
  H   -4.08440150729629     -0.69029975831323      0.64466558639243
