24
Coordinates from ORCA-job ./opt_b97-3c_parallel
  N   -0.87633883537208     -2.75599637988677     -0.94995824780075
  C   -1.06503645450832     -1.56160007148388     -0.32062316186746
  C   -2.31769305255859     -1.12333209353973      0.01189970197338
  C   -2.65018317168397      0.07282382515116      0.69911650787731
  N   -2.03033036082686      1.20827354561513      0.81026444846978
  C   -0.83470536266579      1.47047018606291      0.18106881344965
  N   -0.69866347600271      2.81782724191202     -0.12671540186876
  H   0.23776866033913      3.18544432109503     -0.08791449626016
  H   -1.35813164888094      3.38280276845159      0.38317311805560
  C   0.16055203889062      0.59008405133888     -0.13318137418027
  C   1.33271820612478      1.03737221617978     -0.91881878861359
  N   2.56570645054073      0.91958393396113     -0.60774007244179
  C   2.99467073683160      0.22725318632025      0.50268772938256
  C   2.46477582522354     -0.92956077520832      0.97222720544549
  C   1.22832507102359     -1.52191413976620      0.57448636181620
  C   0.14987476927609     -0.84296737915183      0.09444854089219
  H   1.12313903751641     -2.58728504579871      0.74296698360471
  H   3.07056772384884     -1.49481245438822      1.67155594726618
  H   3.95092013566008      0.56196905913132      0.88615208024075
  H   1.11998252266228      1.48396291234795     -1.89162717375099
  H   -3.63067637621569      0.06057852824163      1.17343417558139
  H   -3.15041071507835     -1.78947779882875     -0.18817493979072
  H   0.02645109968525     -2.92674260459202     -1.35546801744880
  H   -1.65285713122809     -3.17486143336398     -1.43253470053209
