21
Coordinates from ORCA-job ./opt_b97-3c_parallel
  N   -3.30690765464374     -1.46267526178837      1.05209618278551
  C   -2.36127313213306     -0.78761440635617      0.35508089661618
  N   -1.11529344398866     -1.16841016193604      0.57054159777895
  C   -0.03067634541405     -0.52996490360082      0.14644016685688
  N   1.02941119415784     -1.20488872832278     -0.23743109237853
  C   2.27413988051704     -0.70368171489985     -0.26997814524213
  N   2.83927624034500      0.21012260121169      0.53291610907534
  C   2.10183243064617      1.11262551629095      1.16952117353581
  N   0.88786379215247      1.55905781048803      0.93258573848659
  C   -0.00227703348065      0.95603634915948      0.13704577833929
  N   -0.83077051929217      1.65081562126176     -0.59757378571737
  C   -2.01228471077122      1.21247949637318     -1.05500077416073
  C   -2.79327355823169      0.19051519055073     -0.58902293229519
  H   -3.81445573811696      0.13430891151766     -0.94428009719104
  H   -2.42950699591435      1.83015637817940     -1.84399938568865
  H   2.62422792180827      1.63209243882954      1.96732302252119
  N   3.10883222199117     -1.29976351457326     -1.14841052354121
  H   2.81557041700403     -2.16066600441372     -1.57237091314065
  H   4.09146334265172     -1.12186206075815     -1.04738709508345
  H   -4.28058347523392     -1.31995226870655      0.86522404686534
  H   -3.03318272795345     -2.29662357350724      1.53929274517743
