30
Coordinates from ORCA-job ./opt_b97-3c_parallel
  N   3.92432508857094      2.62084971935992     -1.80998120347742
  C   3.33588615417895      1.78570767714928     -1.25469025151044
  C   2.60117367052705      0.78389213768557     -0.57564459103095
  C   1.23644340373834      1.09189340544563     -0.24546200998428
  C   0.26836733828577      0.21684726323604      0.10002548547773
  C   -0.99683864429481      0.73171003221432      0.65605547213890
  N   -0.86879214424362      1.58423769791883      1.69270046141563
  H   -1.66964467551981      1.96947272309721      2.16471139072282
  H   0.04325536233072      1.78433196621699      2.05589822311188
  C   -2.23880208391869      0.39601760361889      0.15003322758703
  C   -3.35423668427547      1.01075581768426      0.75003777606905
  N   -4.25264958045347      1.54423950714548      1.26604959457769
  C   -2.49282064978216     -0.50765058424466     -0.96535333460317
  C   -1.71946190969752     -1.59060910458115     -1.28363291220928
  C   -0.52955503147859     -2.01120320242514     -0.64509053822894
  C   0.37449535805850     -1.24685067414640      0.02197633081140
  C   1.50251227919548     -1.85635788448789      0.72503864559367
  N   1.22534124530150     -2.99557950223191      1.41655598481452
  H   1.91592828258425     -3.38243608364209      2.03611077115053
  H   0.26701186821367     -3.19263880068336      1.64002862841194
  C   2.80261704583873     -1.40907942322202      0.62890792979624
  C   3.28246768794114     -0.32106251137816     -0.11591929736157
  H   4.35160811656376     -0.31832211402759     -0.29150754191668
  H   3.56108041041703     -2.02114333228373      1.10428863909556
  H   -0.29229668882015     -3.06488409551817     -0.74984677408376
  H   -2.09623966654785     -2.24076349346432     -2.06502231470857
  N   -3.63683533207159     -0.24459566746570     -1.68510310358747
  H   -4.02234664189194     -1.00856078898380     -2.21225699103593
  H   -4.33527928990384      0.33858123139292     -1.25604311790080
  H   0.98104828265354      2.14556514832047     -0.25172093033637
