25
Coordinates from ORCA-job ./opt_b97-3c_parallel
  N   -4.85253834349964     -1.79766235995211     -0.66761483144750
  C   -3.79501571094724     -1.38128687284372     -0.43529392590421
  C   -2.49126899523221     -0.89932502001156     -0.13734837447435
  C   -1.72105699333284     -1.68815029386872      0.78639938576863
  C   -0.38818979601871     -1.66805829279998      0.96764097493446
  C   0.58626369405045     -0.87440496420248      0.24284876505131
  C   1.77599467489872     -1.44623063464158     -0.15439262202410
  C   1.95310325278084     -2.83947211090532      0.03214606615286
  N   2.11670844862295     -3.97998440322366      0.17574005839692
  C   2.80799313198787     -0.77343043643109     -0.91723906975253
  N   3.18619944063983      0.45478215415826     -0.83279943595334
  C   2.66051238674316      1.34503741949970      0.04911737868121
  C   1.36583267005512      1.45865285612612      0.44698744473282
  C   1.01304098939038      2.48602327721106      1.35508361122893
  N   0.71849686352842      3.29443837079745      2.13471802220495
  C   0.29511060316719      0.53115407202845      0.03122883898946
  C   -0.90680693680186      1.01692544977053     -0.42984345720937
  C   -0.96940856299026      2.39667808402611     -0.77785844593523
  N   -1.05055468424129      3.50262694211980     -1.11693738308790
  C   -2.11818811781533      0.29777320205746     -0.67406423542751
  H   -2.84990817963996      0.81617861904346     -1.27712715439222
  H   3.36863719996372      2.08177437980041      0.40950272138737
  H   3.35222076163806     -1.39422527796625     -1.62309635607852
  H   0.02439003479754     -2.35924712829601      1.69250137138269
  H   -2.28204172064396     -2.41314522689680      1.36098514297448
