24
Coordinates from ORCA-job ./opt_b97-3c_parallel
  N   -3.11317548939083     -1.67459215593030     -1.01859261058225
  C   -2.33262963981687     -0.80049765491807     -0.31169502845931
  N   -1.03461090967579     -1.00426880347339     -0.43250198395040
  C   -0.00000181407849     -0.29515717259036     -0.00309022666773
  N   1.03436749704162     -1.00503982281240      0.42458087793620
  C   2.33271739104441     -0.79971924662200      0.30720167954095
  C   2.97188544336380      0.19968624692818     -0.45588214699279
  C   2.37972218318179      1.39874794194937     -0.79684622063992
  C   1.10108361937145      1.86589425817623     -0.52640468721640
  C   -0.00025502794893      1.17300422103817     -0.00210728897546
  C   -1.10159712166256      1.86494887355522      0.52277217697863
  C   -2.37957499140386      1.39650490864978      0.79513495033708
  C   -2.97114870460954      0.19724738066400      0.45461844755815
  H   -4.02877724966461      0.07817293200427      0.65376660288888
  H   -3.03089860251249      2.10818448722978      1.29077226609312
  H   -0.92202332370345      2.90827106005832      0.75313700887169
  H   0.92073626187494      2.90901238979620     -0.75709593384803
  H   3.03131866858379      2.11125771560647     -1.29092622462849
  H   4.03006193730187      0.08192160881754     -0.65289560107777
  N   3.11213238657395     -1.67493618269260      1.01401420976552
  H   4.09401312126671     -1.71372976922736      0.81250691266468
  H   2.67771833217329     -2.53974557206766      1.28287383224069
  H   -4.09462744017204     -1.71426800881700     -0.81524610833272
  H   -2.67890300473908     -2.53839922442280     -1.29084773180353
