28
Coordinates from ORCA-job ./opt_b97-3c_parallel
  N   5.00659523773761      1.22252818088068     -0.68144310392342
  C   3.86156602387937      1.04227774999506     -0.57360908301613
  C   2.48680114240089      0.78046787449689     -0.40054106671166
  C   1.59184030032272      1.65582718966008     -1.01360970252676
  N   0.30570683434709      1.81751478376425     -0.83208305592890
  C   -0.56891467861923      1.04110669009536     -0.20254353822394
  N   -1.59774963580424      1.64736028472775      0.34963062737954
  C   -2.84440152657076      1.23181703215951      0.50441727281596
  C   -3.46756424013344      0.15593526753987     -0.15192085386170
  C   -2.81438353191575     -0.96941581082954     -0.62812357131502
  N   -3.56039893769195     -1.94393916417521     -1.23435547639903
  H   -3.15809208895560     -2.85933608488652     -1.32563807114830
  H   -4.55543042082863     -1.93786617083539     -1.09827664038507
  C   -1.43164935891941     -1.25733876373706     -0.47944311777815
  C   -0.39997974682958     -0.41759128455357     -0.13894981928963
  C   0.83613517289451     -0.96171274375606      0.35755861409967
  C   0.74368884517087     -2.24102396056617      0.93884331305159
  N   0.71280124994188     -3.30129642153835      1.42139077360185
  C   2.13149378995114     -0.40404936833408      0.32214041075691
  N   3.13390994997347     -1.06233363950606      0.94151664213727
  H   4.08506560601426     -0.76647011968223      0.80897666610651
  H   2.98338215025128     -1.98342384531344      1.31441838770855
  H   -1.16784106487879     -2.29963467307936     -0.61194924193755
  H   -4.55045343988560      0.16006125845245     -0.19022329410706
  N   -3.59160599732720      1.99800914746830      1.34726303145500
  H   -4.58472025245113      1.86741046831833      1.38940017271712
  H   -3.24305238886967      2.91668019382325      1.55525551749623
  H   2.03515875314347      2.36461304342379     -1.70683774676119
