26
Coordinates from ORCA-job ./opt_b97-3c_parallel
  N   -4.99998213128134     -0.67940783265935     -0.56700114474446
  C   -3.84135849410851     -0.67137201533514     -0.45598639565074
  C   -2.44290668601094     -0.60957567007562     -0.28754069694306
  C   -1.70394612634728     -1.72557024963249     -0.66104842940221
  N   -0.45678033436715     -2.04661955920279     -0.41753875329339
  C   0.57561968527630     -1.32443282360390      0.01126832465868
  C   1.62647771095242     -2.05568073726297      0.58392682801185
  C   2.95932776628521     -1.72639582045612      0.75524056443423
  N   3.69185298167017     -0.71503916733390      0.31739371341427
  C   3.17256044894119      0.35781905356394     -0.28980842093171
  N   4.10828917847470      1.17417310895955     -0.82771477998822
  H   5.06932115643850      0.97863077399568     -0.61045212345785
  H   3.87293885973751      2.08543507959705     -1.17347305982788
  C   1.82876869927267      0.79213615880002     -0.36368291241935
  C   0.64564511146136      0.13361809213693     -0.07990644907822
  C   -0.51270926872332      0.94414209096510      0.19978975571199
  C   -0.23536686441322      2.27912131233018      0.55934292599984
  N   -0.06824064452388      3.39237256036097      0.85941575401785
  C   -1.88911828907965      0.62251295597970      0.18857748378429
  N   -2.76929084624199      1.56017167839591      0.58312501360976
  H   -3.75736253241660      1.39198141691355      0.50902016474745
  H   -2.46680096120495      2.48995310642911      0.81650124167848
  H   1.72129370852217      1.83822273967273     -0.62165991336706
  H   3.54784292702583     -2.47660016345892      1.27609131759141
  H   1.35258890464953     -3.06562454305098      0.86216833722487
  H   -2.25916475358950     -2.49462770731237     -1.19043758117305
