30
Coordinates from ORCA-job ./opt_b97-3c_parallel
  N   0.85188935995071      2.97493687877953      1.96849842207218
  C   0.94203409706403      2.01059956780526      1.32122915202741
  C   1.16142600080659      0.81805897408102      0.60400012047507
  C   2.52352824122222      0.50158638941296      0.34104176647859
  N   3.45816438996997      1.37806360318225      0.79615347729885
  H   4.41072879665870      1.27517809621422      0.50249367988623
  H   3.18064630948766      2.29055221938678      1.11473662880011
  C   2.99322722287991     -0.58987050278346     -0.39610644408489
  C   2.33118836658949     -1.77229323172262     -0.68734879679002
  N   3.05851110563488     -2.77064713298136     -1.29600132252873
  H   2.53699597756000     -3.47902249772464     -1.78102978765479
  H   3.90782180950872     -2.50438272172380     -1.76146305564274
  C   1.02445718690934     -2.13037942257321     -0.29933458270237
  C   -0.01312989487806     -1.35011699160417      0.15522847074938
  N   -1.06274113023596     -1.99678259600728      0.70424427334698
  C   -2.32057442747358     -1.62758045747125      0.71508177887519
  N   -2.98828665169784     -0.76082088997099     -0.08024123488565
  C   -2.42690208929380      0.30837674939571     -0.59026842688977
  N   -3.20338551972807      1.02306614758578     -1.43417667677552
  H   -4.17591434955530      0.77678236374774     -1.47293647144213
  H   -2.93410049027123      1.94649524213136     -1.72397179141666
  C   -1.09941400326357      0.83713548947037     -0.31602215291549
  C   -0.91326774895566      2.18231811577225     -0.69708792691524
  N   -0.84156296932793      3.26953357699504     -1.10774859306708
  C   0.01296470579533      0.11699969389331      0.12926269375381
  N   -3.12384088832910     -2.27657829355524      1.59861974351619
  H   -4.11431679602742     -2.21099784630100      1.45385422072175
  H   -2.76206325049670     -3.10875560596958      2.02698194079372
  H   0.79275188888576     -3.18805803359021     -0.32848701058406
  H   4.03923380561077     -0.54712965927538     -0.67805416690059
