28
Coordinates from ORCA-job ./opt_b97-3c_parallel
  N   0.22316723207262      4.09468055824983      1.02996539619121
  C   -0.17582683659334      3.02854331485320      0.80252790011398
  C   -0.67410688023842      1.72705866106138      0.53959689970339
  C   -2.05455052975537      1.56317471964771      0.55164305504089
  C   -2.85569769056758      0.50770866741337      0.14061923282518
  C   -4.24951319380623      0.75286620861664      0.12073287027459
  N   -5.40250005681740      0.89455618308163      0.07578476558701
  C   -2.44982117212922     -0.79368254864678     -0.29759263446375
  N   -3.39829634351164     -1.59812179551640     -0.79959156455409
  H   -3.19216786768099     -2.55655385466615     -1.02526365247863
  H   -4.36322919408935     -1.31407142382835     -0.80184368470336
  C   -1.14350064808890     -1.32852615076784     -0.14486669119496
  C   -1.01935247633434     -2.72081818556351     -0.35990136830224
  N   -1.00623521639513     -3.86007687144869     -0.59014756516496
  C   0.02293586065135     -0.68499191689797      0.31885046225310
  N   0.94248409940755     -1.43660212597461      0.90340014253572
  C   2.24068764392880     -1.29690614882457      1.03851425591955
  C   3.10273835645974     -0.47539180655360      0.31925478249495
  C   4.49195156466688     -0.69627624864045      0.37538000167732
  N   5.64588071587541     -0.84242330190611      0.37226985754036
  C   2.61224176417952      0.60319675341396     -0.48327818042705
  N   1.42487626759437      1.17100741399021     -0.34045841886943
  C   0.28461971034269      0.75304726437049      0.15653980303611
  N   3.42180501711790      1.17173092161971     -1.38852618609083
  H   3.14803315199979      2.05006072391979     -1.79222101230207
  H   4.37313234719857      0.86646680946736     -1.49654973857892
  H   2.68975824028103     -1.96558343469152      1.76489008244493
  H   -2.60425273376272      2.44575867793424      0.84884917415346
