25
Coordinates from ORCA-job ./opt_b97-3c_parallel
  N   1.60624033435298      2.70714204884372     -1.51615683817373
  C   1.33591118587456      1.71556608493758     -0.96465255014599
  C   1.08709450746799      0.50474205584540     -0.29461346795025
  C   -0.31072988818681      0.24743814155232      0.09916569022089
  C   -1.01752892646563      1.29768057282241      0.61524996078073
  C   -2.40647159236670      1.45250372629988      0.85149427764410
  C   -3.42879457579736      0.71395520024620      0.34682479259949
  C   -3.29705395125274     -0.40049564333225     -0.52362819601316
  C   -2.19708821747905     -1.14702648955523     -0.77911236609260
  C   -0.87303524397782     -1.06820038635469     -0.19417401161483
  C   -0.18891057614828     -2.23942242494394     -0.01370068586862
  C   1.10211762875618     -2.43500578990777      0.53343414125843
  C   2.13435419286795     -1.56395870737816      0.63978714079371
  C   2.19282077766426     -0.25266210508737      0.06033936945112
  N   3.44903207960321      0.24983218893802     -0.11026368385328
  H   3.55840953176446      1.10184229246881     -0.63538490325688
  H   4.21319372395084     -0.39747703549948     -0.17738250602482
  H   3.05457768996581     -1.92443491582693      1.08297908454184
  H   1.29669692800582     -3.44017697943127      0.89142820490680
  H   -0.74248091073300     -3.14640872758170     -0.22682011597763
  H   -2.32458528289595     -1.96717644569369     -1.47744000338602
  H   -4.20477444072890     -0.71089640155941     -1.02912777477673
  H   -4.43819152269004      1.04018881360895      0.56385119050770
  H   -2.67597327089196      2.32355885274681      1.43718154485201
  H   -0.42092054595943      2.16398000094315      0.87544763797985
