24
Coordinates from ORCA-job ./opt_b97-3c_parallel
  N   -5.07930489146961     -1.09684423148336     -0.84105923634109
  C   -4.00217254717993     -0.78081936802456     -0.54054374102028
  C   -2.68127781003293     -0.43783939123949     -0.17267547125135
  C   -2.09794735672893      0.70609093943236     -0.68322163946881
  C   -0.84245624204422      1.24894742376219     -0.38839414965773
  C   0.26496949761009      0.63339321789268      0.16134362531939
  C   0.23164306559678     -0.78221267664301      0.51452552051979
  N   -0.84983510285092     -1.22806498105376      1.23495953016686
  C   -2.09193289377555     -1.14564819285251      0.92814155906948
  H   -2.78254284112607     -1.61495275766893      1.62450347206893
  C   1.22413539831091     -1.67944705450561      0.25955464762862
  C   2.52817082332988     -1.40675437030746     -0.24910912420197
  N   3.23779170590544     -0.28790855039623     -0.14957333025093
  C   2.77278721421079      0.88078939682274      0.26914641068829
  C   1.47866818036556      1.37276978803362      0.39570554077426
  C   1.35705483534120      2.75666047570961      0.66297980518151
  N   1.24488463646438      3.89361390450688      0.87786318455604
  H   3.55594448958811      1.60708187298303      0.46178099877741
  N   3.19781067234283     -2.44227268404070     -0.79115154522028
  H   4.14417747245940     -2.29254988517901     -1.09329134160170
  H   2.74903714230660     -3.31411712468097     -0.99830966106372
  H   0.99931276194134     -2.70922946647730      0.51045761576901
  H   -0.69173381823333      2.26714171803367     -0.72231247780037
  H   -2.71837982183223      1.30131872037591     -1.34119678714113
