30
Coordinates from ORCA-job ./opt_b97-3c_parallel
  N   -3.77005250997942     -2.36237623144492      1.30304420071053
  C   -2.97630049270080     -1.62957536781342      0.86492156247394
  C   -2.05988717826027     -0.70263314368426      0.33386285244100
  C   -2.48119247423812      0.62489264808720      0.23904780608073
  N   -1.88197353143278      1.61371806261050     -0.47518189333709
  C   -0.60140999646548      1.75487389216896     -0.62730734919294
  N   -0.18271862081096      2.80217432284730     -1.37903216975986
  H   -0.87034080691768      3.33115040692170     -1.88801985219371
  H   0.76960885932954      2.82857105380482     -1.69021230823209
  C   0.46804136294048      0.92212483652196     -0.04480059160253
  C   1.48290614751251      1.51202656788553      0.63888621142233
  C   2.66044090422076      0.91326727517084      1.14445529596009
  C   3.27071201724888     -0.20536720399235      0.63836708457766
  N   4.53960374227292     -0.55076605517348      1.08935031204956
  H   4.74083899764988     -1.53711899305434      1.08040765772563
  H   4.81227322822315     -0.12245916625821      1.95837057586203
  C   2.80381538306209     -1.00277839586699     -0.45742225623366
  C   1.52414737999609     -1.17606189690548     -0.89196129030078
  N   1.25287873090079     -2.09412881112109     -1.88145379166530
  H   2.02421827194655     -2.41400975167427     -2.44288719785728
  H   0.39947053956347     -1.95241485252098     -2.39328349281112
  C   0.34691095877224     -0.51336840035769     -0.31525081189726
  C   -0.80313263421094     -1.20677562702408     -0.13551630498390
  H   -0.77429580900100     -2.27514597001260     -0.30896497734934
  H   3.57252395876658     -1.58179133258049     -0.95943355228991
  H   3.19096166509569      1.46210657338354      1.91435076776018
  H   1.36842711785106      2.57114202813501      0.84931288821474
  N   -3.65195209473990      1.02224078872431      0.81145104840713
  H   -4.05377656503428      1.86375258294735      0.43901791229729
  H   -4.29642060106041      0.31911640097490      1.13164568162262
