28
Coordinates from ORCA-job ./opt_b97-3c_parallel
  N   -5.15078668287102     -0.20427428881648      0.12799704861295
  C   -3.99246622603878     -0.08677963516960      0.06137033764528
  C   -2.60060985943794      0.05887478195617     -0.01870675134866
  C   -1.86050853649433     -0.86994439634136     -0.80069371279103
  N   -0.56478114088044     -1.12783761001357     -0.69948957025059
  C   0.39500454055585     -0.38294996232171     -0.18412437966563
  C   0.26466654651198      1.09342496951327     -0.10708474656727
  N   1.18602198180129      1.88782892449479     -0.62152932803810
  C   2.47963428390851      1.60824099415717     -0.71616204268542
  N   3.23533011457730      0.80010814243102      0.04235881571300
  C   2.79797717432790     -0.32241492135767      0.58314936654157
  C   1.55258125579092     -0.99570361883786      0.31402037573077
  C   1.50357193838467     -2.38081969102286      0.56586687295179
  N   1.53623466318376     -3.51617936993829      0.81965987853734
  N   3.66703532722492     -0.93814601309733      1.41204882997052
  H   4.61317148013610     -0.60227834503619      1.41877877302381
  H   3.49459092621208     -1.87677221661150      1.72582762031224
  N   3.16821478145500      2.33519473424979     -1.62664687445216
  H   2.71627966400014      3.14088403282030     -2.01904003208478
  H   4.16936494332342      2.33673555774779     -1.56005527967061
  N   -0.78586879689903      1.64028617973301      0.46549277705596
  C   -1.98568690808387      1.11974887352522      0.69638731557697
  N   -2.69436615069698      1.74809207186511      1.66050115301287
  H   -2.35713465326123      2.64217320263762      1.96782755821335
  H   -3.66716106183845      1.53834971138153      1.79694191483792
  N   -2.52354824265113     -1.64666278036702     -1.68761618541100
  H   -2.04855922838011     -2.47109680700539     -2.00930670564696
  H   -3.52814697075909     -1.65453460287900     -1.69834443782948
