24
Coordinates from ORCA-job ./opt_b97-3c_parallel
  N   5.21632241552530      0.19249713312569      0.48206238415150
  C   4.06173061417031      0.24025979754123      0.36264486784370
  C   2.65507184983372      0.30716592634459      0.21863489729013
  C   2.00032206204542      1.43861288180197      0.69973982659534
  N   0.77266865915739      1.82668099068649      0.44337513807945
  C   -0.29691053204164      1.22633133349044     -0.04081614223822
  C   -1.28056267131380      2.04669627702296     -0.63499754297077
  C   -2.63825134176377      1.83731832278302     -0.71229055921164
  N   -3.43340744751453      0.90081598076060     -0.19267723838554
  C   -2.99674512814345     -0.23441641357163      0.33357206620966
  N   -3.94755682748849     -0.97786294016195      0.93317885709649
  H   -3.75630986108464     -1.88884107682662      1.30514022929580
  H   -4.89984288747969     -0.66174626499197      0.88071245889520
  C   -1.69318559040520     -0.82125254023872      0.25095259913593
  C   -0.49368701317367     -0.22553487263251     -0.00945872686428
  C   0.63825000000125     -1.06383113866495     -0.40134283434756
  C   0.28656329198122     -2.32312321670509     -0.95113573579344
  N   -0.01849775728824     -3.35954037368102     -1.37957179377124
  C   1.98732900513034     -0.80342842254413     -0.33474968793257
  H   2.62740371654607     -1.59526727160656     -0.69978619814733
  H   -1.67722957913786     -1.89911917924963      0.35566641561327
  H   -3.19535169236569      2.62679762742353     -1.20773085606221
  H   -0.92299946769654      3.01301417054027     -0.96742182039842
  H   2.57359488800387      2.12639233155291      1.31282198491396
