30
Coordinates from ORCA-job ./opt_b97-3c_parallel
  N   -3.28217590787198     -1.86197798005859      1.45215030694555
  C   -2.21640838160580     -1.72411675459783      1.01057868301609
  C   -0.87957156899607     -1.58708969402289      0.55644858314414
  C   -0.03404864859659     -2.68112353484628      0.90588530103042
  C   1.21353592433131     -2.97540666200335      0.46903107229646
  C   1.89873841899716     -2.20787839526568     -0.52787062877356
  N   1.72652806303344     -0.94158503749800     -0.77275426805529
  C   0.89622256195755     -0.04826138223159     -0.20626257243339
  C   -0.52189589565225     -0.38095364872643     -0.05415143271295
  C   -1.51908952435466      0.49722924794661     -0.57619447725611
  C   -2.62855427493360     -0.07902111316932     -1.22256063999391
  N   -3.55203954694857     -0.47164000204003     -1.81398496679120
  C   -1.54672935428115      1.90473198994101     -0.41833713742264
  C   -0.57883736688189      2.68420002183053      0.23765192028116
  C   0.74368138489246      2.39395675476019      0.49755931980482
  C   1.43856300235255      1.19019420315755      0.11145377679833
  C   2.84836597748407      1.28003841714848      0.04633470083353
  N   4.00006520352861      1.44334164820667      0.03778157890354
  N   1.49595234670296      3.33857256980036      1.12643691470779
  H   2.49695686757968      3.24191436165138      1.13320596293338
  H   1.15198712861250      4.28025594586168      1.16954550897766
  H   -0.90092997974010      3.68191230395040      0.51239577681196
  N   -2.64116355380686      2.56011680792169     -0.87373465322875
  H   -3.45555017951890      2.04903397046484     -1.16836473667633
  H   -2.75820604972050      3.53632590436462     -0.68113573174186
  N   2.85396486582110     -2.84361497704983     -1.25749483747461
  H   3.26985650057047     -2.32140063956530     -2.00946111829178
  H   2.81008904491813     -3.83975993903405     -1.36698792897475
  H   1.66909436341347     -3.90180962175419      0.79262026323911
  H   -0.49088767958622     -3.39978164664352      1.57370153400326
