32
Coordinates from ORCA-job ./opt_b97-3c_parallel
  N   -4.02085768202609     -2.47690007920034      2.01431642596022
  C   -3.39908585940251     -1.73404208317435      1.37137852698674
  C   -2.62449063361698     -0.84260713527706      0.58863518242135
  C   -3.26337209192643      0.23656705006263      0.01768662639570
  C   -2.74351411746798      1.21125118176653     -0.85129612364791
  C   -1.42324571543253      1.57146965871900     -0.99754870881225
  N   -1.03988762533203      2.45693656816060     -1.95904348580997
  H   -1.75370914326032      2.95590741606605     -2.46322195714856
  H   -0.19714022354801      2.97919744356073     -1.78057306298614
  C   -0.35521982252593      1.03327585977973     -0.14557076617313
  C   0.52070715244726      1.83702692829731      0.52292156900024
  N   0.31602928282401      3.22989523724298      0.52149806359821
  H   -0.64215271695689      3.49998886154539      0.69013396556538
  H   0.93438796178118      3.72206941737375      1.14493674736365
  C   1.67465573506677      1.37885054229639      1.22856819706367
  C   2.45532725336291      0.29748552124778      0.93845534470487
  N   3.57385229006855      0.03786448624042      1.70084492952406
  H   3.97788530892038      0.81846005005654      2.18825948212498
  H   4.25983213479366     -0.58813888077418      1.31473044514458
  C   2.21901322159370     -0.64112328856794     -0.15041314164879
  C   3.33766619166517     -1.28046018994572     -0.71587877289754
  N   4.23978025796176     -1.83514810698181     -1.20235194628111
  C   0.97384897328396     -1.00800535268976     -0.62520758088760
  N   0.83232875984136     -1.94147712184596     -1.58780224422188
  H   -0.07309455691039     -2.08822314708691     -1.99202426953518
  H   1.63108493503783     -2.32610692107696     -2.06490795060926
  C   -0.27358032912139     -0.42846878188142     -0.09918381279220
  C   -1.27597665258073     -1.24384461476081      0.29306621320203
  H   -1.07072655839331     -2.30579002060870      0.36776439699149
  H   2.00405784298629      2.00263484072573      2.05371718534142
  H   -3.47429324789811      1.76323492709120     -1.43313287292338
  H   -4.32992198463557      0.29850530813937      0.19876372348551
