30
Coordinates from ORCA-job ./opt_b97-3c_parallel
  N   5.74100557899116     -0.24985767056127     -1.16137028826982
  C   4.62010072293403     -0.12550694187996     -0.87258712536278
  C   3.27224046662758     -0.03214170384366     -0.47477722878797
  C   2.51934372526463      1.05745589917906     -0.85871761154328
  C   1.21187786502758      1.39917755381244     -0.52217180045658
  C   0.19151227440220      0.62510385657077      0.01516829397221
  C   0.38340102903807     -0.81442694286394      0.21297238041136
  N   1.53978983563562     -1.28642510438899      0.72600938111370
  C   2.78524019639168     -0.98575659715725      0.50269738869340
  N   3.70842953494147     -1.62830001991521      1.25019420408675
  H   3.40570810322526     -2.35832164818688      1.86755261913037
  H   4.69043902804043     -1.46270609222887      1.13095688166399
  C   -0.58623798766456     -1.76238629600978     -0.01915939469905
  C   -1.95196293354172     -1.63823099646274     -0.33191139789112
  C   -2.75790841799474     -0.48802795311766     -0.17605127892252
  C   -4.12628870300982     -0.64419578499889     -0.45472493778555
  N   -5.25900191131118     -0.79433015348869     -0.68648723333639
  C   -2.35258562461533      0.78119322824992      0.33145465965824
  C   -1.02541155049668      1.27187550304007      0.39478498476128
  C   -0.91288378605873      2.63341964927426      0.74321677616734
  N   -0.88011134512319      3.75802594299992      1.04483134311306
  N   -3.34229558964745      1.61840169903161      0.70752490950932
  H   -4.30459103583538      1.36306118924886      0.57556194099358
  H   -3.14372030362460      2.58239753797171      0.91171217623663
  N   -2.56381954985930     -2.77907557288931     -0.72569100418080
  H   -3.54098362593191     -2.79790515506565     -0.95742715210345
  H   -2.01886198218558     -3.58945809614594     -0.94879985529548
  H   -0.22685585457868     -2.77898872911394      0.07916525627150
  H   0.93312447384291      2.40880054874057     -0.79129155373700
  H   3.03816087042183      1.78512887110076     -1.46982297110993
