28
Coordinates from ORCA-job ./opt_b97-3c_parallel
  N   -5.71333716548428     -0.63994289053426      0.20365743367576
  C   -4.56031347491467     -0.60504513419439      0.04761524453472
  C   -3.16320016928814     -0.50730391704464     -0.09373159940157
  C   -2.50566809199227     -1.46684289282007     -0.88865350532081
  N   -1.24675228623326     -1.76588391014364     -0.95399182563096
  C   -0.16906365317113     -1.21196247703589     -0.36089919076739
  C   0.82467871530426     -2.09380597056640      0.03161275895590
  C   2.11487658180962     -1.83542631083462      0.46600718503815
  C   2.87552815835142     -0.68195379444904      0.39905863748872
  C   4.21349592086904     -0.76649244393596      0.84483912553853
  N   5.32397506225216     -0.78838350932129      1.19134826596805
  C   2.47784785806560      0.56744225956171     -0.19612199969501
  N   3.46372163267935      1.44647427432150     -0.45398228547095
  H   3.25901744423002      2.36897205048195     -0.79635937908937
  H   4.41563359699811      1.23482532699860     -0.21233509615774
  C   1.15061605795500      0.94168307474821     -0.47882918679638
  C   0.99213495756430      2.25742202817205     -0.95728881686203
  N   0.91774230007592      3.35227623008513     -1.34854730818243
  C   -0.07744323450418      0.23395372207050     -0.18718092931083
  C   -1.16434406394910      0.98550755469882      0.20665856796334
  C   -2.52331371252441      0.65066476313259      0.40736575323258
  N   -3.27520165994816      1.56242900776206      1.05690424747609
  H   -4.27188713387913      1.44944195005864      1.12822709171063
  H   -2.89576099587853      2.46005060847932      1.29360283088338
  H   -0.93343342172583      2.01481824323614      0.45085437423375
  H   2.64322074532618     -2.69564541358656      0.85707178154493
  H   0.53331844109877     -3.13497488118427     -0.01245905878964
  H   -3.14810482820496     -2.07168582224609     -1.52266320841895
