27
Coordinates from ORCA-job ./opt_b97-3c_parallel
  N   5.60865031035581      0.75336282924727     -0.07746157629429
  C   4.46205263308828      0.58743022079062     -0.19121327575467
  C   3.07827486625570      0.33588383780313     -0.27680318428143
  C   2.33989805636401      1.08531915043251     -1.21098473006378
  N   1.05373662812114      1.26512880514013     -1.29643880006795
  C   0.10003149391871      0.69400779832187     -0.54929388738758
  N   -0.86843149389414      1.45585120866379     -0.11979552274128
  C   -2.05373535500867      1.08324768981992      0.37840397274448
  N   -2.61711312564155      1.99619667537545      1.19753085094151
  H   -3.57324636325945      1.89790337143814      1.49022634470938
  H   -2.21439436844395      2.91583921553132      1.20325091564017
  C   -2.76995830576705     -0.08680428868469      0.04722299476892
  C   -4.13972386150365     -0.13769071297936      0.33954751310372
  N   -5.27940485375930     -0.17563395778219      0.58442272060254
  C   -2.16208407947558     -1.21948019215798     -0.58663854990904
  N   -0.88335720727289     -1.54102166975432     -0.57291817222430
  C   0.15138460603096     -0.75237109658012     -0.26649051278282
  C   1.27386278939252     -1.30058936366967      0.32640802461408
  C   2.56444492087602     -0.76129485199145      0.46963289895877
  N   3.41348082372999     -1.40845472128154      1.30279116674141
  H   4.39572969322225     -1.19362916818168      1.29341652508045
  H   3.14525689470426     -2.28736899151523      1.70363100372680
  H   1.12518157780974     -2.29787561344984      0.72358946451895
  N   -2.97581154852739     -2.10817912391994     -1.19958740590017
  H   -3.97366887110638     -2.02952737127954     -1.12038968312917
  H   -2.58860661915813     -3.00467688840550     -1.43147378046454
  H   2.92583461094282      1.63626063477422     -1.94060238225066
