23
Coordinates from ORCA-job ./opt_b97-3c_parallel
  N   -2.52006517840389     -2.03337502684155     -0.92691198185108
  C   -1.79992046961076     -1.05072450627157     -0.32944509258413
  N   -2.40751059725676      0.11821145823904     -0.26635738260457
  C   -1.82865861118296      1.19340201180624      0.32045389264014
  N   -0.57125845544547      1.58217491247003      0.36560825098807
  C   0.50082233113558      0.81699037468433      0.09591538994704
  C   1.58930828792325      1.39995949300688     -0.53938217325610
  C   2.85521151377238      0.86188287563009     -0.78588635391059
  C   3.45112436630825     -0.23684684329115     -0.21147554068060
  C   2.85851133053943     -0.98809262270786      0.82149571546794
  N   1.60152936842711     -1.12163916284026      1.12328165619920
  C   0.52869066240129     -0.60705492954197      0.45761177069272
  C   -0.53069733832879     -1.43198101215820      0.20031031691678
  H   -0.37368592384745     -2.48312352398154      0.40964673950866
  H   3.53624512769060     -1.52617037966668      1.48231292390975
  H   4.49259714643546     -0.43245797280627     -0.43059150692287
  H   3.47753581978733      1.44513859712670     -1.45591790833577
  H   1.39246351684966      2.38982575830931     -0.93147109142661
  N   -2.72710550262850      2.05345329308816      0.86911271945915
  H   -3.69141254973201      1.92219604289063      0.62527100453331
  H   -2.41080336724701      2.98643506583033      1.06128596872432
  H   -2.20267194683362     -2.98339082269612     -0.90802667836323
  H   -3.49187339975358     -1.85813347127817     -1.10808675375139
