29
Coordinates from ORCA-job ./opt_b97-3c_parallel
  N   5.05082487755900      0.96669239306870     -0.99167050607120
  C   3.91674158126984      0.89110155856383     -0.73767248156107
  C   2.55427559055112      0.74588980419565     -0.40261833758982
  C   1.72538938176252      1.83897657047307     -0.62692978260203
  C   0.39155792050359      2.04198209594190     -0.34987905466391
  C   -0.60522543839676      1.14105611193419      0.04415226153728
  N   -1.74990614383991      1.69947550406637      0.43582687572232
  C   -2.99197777481689      1.25283158934648      0.42847870355543
  C   -3.51401786089192      0.13517108045381     -0.24979883016320
  C   -2.77235982777077     -0.97674029905757     -0.59530359808092
  N   -3.40857031933029     -2.01873242675750     -1.21360807129129
  H   -2.95789163081816     -2.91589661838030     -1.21440635716122
  H   -4.41140674205874     -2.05498002090251     -1.17843394304275
  C   -1.39013245777128     -1.18196736071590     -0.33449924922579
  C   -0.39596639473207     -0.30897911316861      0.03440504215930
  C   0.85571353211220     -0.89099028145758      0.48586763758766
  C   0.73520287815404     -2.15223015530329      1.10055953739205
  N   0.69324173226266     -3.19959242854972      1.61142906665956
  C   2.17961490352612     -0.46979883235863      0.25680724843693
  N   3.18843883091189     -1.26917772409892      0.66452209067242
  H   3.00383804925361     -2.18160440820643      1.04169281581023
  H   4.14191324371522     -1.02518330076098      0.46524449122452
  H   -1.07026344052260     -2.20878625582603     -0.45894111816105
  H   -4.58619986063344      0.09738360970879     -0.40134806156444
  N   -3.86259089562320      2.02548629737851      1.13711375280340
  H   -4.84961032098708      1.86326367413076      1.07514396628851
  H   -3.55722591837254      2.94835200732771      1.38789814425695
  H   0.02991144831763      3.05458327154544     -0.46810405299171
  H   2.23533595614848      2.70044209344359     -1.04031563030658
