26
Coordinates from ORCA-job ./opt_b97-3c_parallel
  N   1.97854419484393      2.76775536914887     -1.27145882942074
  C   1.68555841055917      1.74088536913779     -0.80817140113686
  C   1.43428147914156      0.45575884923036     -0.28319137535514
  C   0.14584098358003      0.25168041879927      0.26377725156933
  N   -0.57260747209445      1.30550218350235      0.59453229184825
  C   -1.90303272440348      1.41664507691458      0.62793756313444
  C   -2.83214224451823      0.60599808355060     -0.02806566743846
  C   -2.54010461082978     -0.67100853159027     -0.50833165704214
  N   -1.52791337472576     -1.45926585092602     -0.13474648386885
  C   -0.38548752175206     -1.11908257155503      0.41365858468112
  N   0.26224066006360     -2.03713225440784      1.12850074763488
  C   1.56512793816808     -2.22307539427326      1.17721956312169
  C   2.58044603869845     -1.65804526284901      0.42655817753051
  C   2.52311226199551     -0.46346398207457     -0.30355652526479
  N   3.62636050500696     -0.10893112057223     -1.01506441248186
  H   4.48167372493058     -0.60770765951650     -0.85443998594918
  H   3.72251263453684      0.83884888671644     -1.33868249180631
  H   3.54623136140591     -2.14504999971054      0.48425140259494
  H   1.87038506407350     -2.99243652500145      1.88198305251462
  N   -3.38869798082562     -1.25785398376288     -1.40128130323342
  H   -4.28464801751501     -0.83900474066047     -1.56988657519223
  H   -3.34420882130680     -2.25971272629933     -1.46093204164835
  H   -3.83001482845859      0.99645652124697     -0.18502056091872
  N   -2.34091251287812      2.50259453709351      1.32772663017536
  H   -1.66538776463916      3.23236556114245      1.47375223265588
  H   -3.29565973075867      2.79354768851883      1.22403366299756
