27
Coordinates from ORCA-job ./opt_b97-3c_parallel
  N   -5.22816663475611     -0.71233314946719     -1.03644556819708
  C   -4.12512470630122     -0.46791473805965     -0.77027285113830
  C   -2.77607701851420     -0.17099909574501     -0.45365165239769
  C   -2.20630255648770      0.96561275238153     -1.01103065547395
  N   -1.08700375723207      1.54875242190518     -0.62626223398583
  C   -0.00470680320482      1.13143857767965     -0.03808010406698
  C   0.86920573298239      2.08784572814636      0.58346477706594
  C   0.26163186719378      3.23747435695170      1.13838294155137
  N   -0.23017051199531      4.17790681040860      1.61063369809345
  C   2.25062144762569      2.01999874368863      0.53908387196869
  C   3.08936913207300      1.07496048689738     -0.03413436210400
  C   2.78942894229876     -0.19469039737403     -0.51158755594780
  N   3.76191423242695     -0.91113515244630     -1.11222881043665
  H   3.63647732715689     -1.88868962873404     -1.31305364778341
  H   4.70343611485089     -0.56428895544417     -1.12606515734136
  C   1.51729482491373     -0.86519198050548     -0.30800716459826
  C   1.55004466548956     -2.27199663044657     -0.48163530636756
  N   1.65601108445534     -3.40608854464024     -0.70915462935420
  C   0.31745364519821     -0.29164880705113      0.04558963170048
  C   -0.73762253516778     -1.09650989573665      0.66013553705428
  C   -0.29958460323207     -2.00032158534352      1.66218197179003
  N   0.06229889948447     -2.71848861500068      2.49992542264836
  C   -2.08983423049125     -1.03319670586441      0.42820700746901
  H   -2.69161905384262     -1.76286300689029      0.95238055059469
  H   4.13106116926111      1.36294019389816     -0.09939516747114
  H   2.75594343678939      2.88546741978411      0.94778160098515
  H   -2.75880401977481      1.49996597581072     -1.77480817725532
