19
Coordinates from ORCA-job ./opt_b97-3c_parallel
  N   -1.47611617910607     -2.90547141065760      1.38038978692567
  C   -1.37676574366836     -1.86751379539518      0.86953679752446
  C   -1.25559122373350     -0.59445043349198      0.26473757336503
  C   -2.33999478589348      0.25358848488329      0.27617758956527
  N   -2.51123264693054      1.42190147885334     -0.37227124817440
  C   -1.52555939591587      2.16519330571128     -0.79671636107101
  N   -0.23657091038723      2.16410425169777     -0.42277850733642
  C   0.47304689764032      1.12766405873669     -0.08767556051454
  C   1.68695564942863      1.25720717496886      0.66228261624684
  C   2.76247838081215      0.42095072034714      0.59501325060745
  N   3.03995601006696     -0.55417665757177     -0.30832620253349
  C   2.12407248658133     -1.13300769154328     -1.02863226019739
  N   0.79360367608582     -1.18364517770908     -0.82079331046692
  C   0.04569896318927     -0.26661768264495     -0.30615249110979
  H   2.47201502196923     -1.77069386728661     -1.83415250917497
  H   3.58198636207770      0.62279820570555      1.27565316403619
  H   1.73297118564339      2.10296123019670      1.33731880087901
  H   -1.79804793542401      2.98302365937431     -1.45597221433385
  H   -3.22595398163545     -0.10299043357343      0.78888024066153
