30
Coordinates from ORCA-job ./opt_b97-3c_parallel
  N   2.39975652981573      3.41075262090626     -1.89380419684822
  C   2.02832771651327      2.44712040498451     -1.35815495219215
  C   1.52128523064260      1.31575243881334     -0.67618064569698
  C   2.35545069121557      0.24328601869515     -0.52154765654656
  C   2.13021317017257     -1.00672223488665      0.11264874169216
  C   3.26966000895333     -1.76669200373219      0.45625451172193
  N   4.16032399809203     -2.44946166955027      0.76515666185049
  C   0.88461736244956     -1.63038466928576      0.28063004755742
  C   -0.36036937185916     -0.99677444490078     -0.10501180253815
  C   -1.35174140930375     -1.72319303847656     -0.70525547461813
  N   -2.55863921340819     -1.29439053259746     -1.12641275485025
  C   -3.19709033264112     -0.28828710175384     -0.57666505177119
  N   -3.00115018870052      0.30327228302126      0.64633363334618
  C   -1.80576128323189      0.56800015455334      1.07353740279854
  N   -1.63809624848927      0.97234650631282      2.35108630662566
  H   -0.79017641001244      1.45514243007647      2.58976874102727
  H   -2.46061739881430      1.18442146960078      2.89077778728228
  C   -0.57542364956531      0.40490689302837      0.26158248186287
  C   0.20889167862609      1.46319090624163     -0.05021103565794
  N   -0.15181517345349      2.75648863330042      0.32037626499735
  H   0.39600404763275      3.48468308392903     -0.11013048161176
  H   -1.13658050931499      2.95592545374993      0.24773654140605
  N   -4.29669670124507      0.17612934095137     -1.22916241217690
  H   -4.97121645231620      0.68110348073801     -0.68329781399890
  H   -4.64715129756506     -0.40070443638697     -1.97372992526681
  H   -1.13769932250391     -2.75277357472374     -0.97683341346300
  N   0.82780393572640     -2.89022149545837      0.74264064442379
  H   1.66333707721885     -3.39384060721203      0.99241320093367
  H   -0.05827678797939     -3.30003168300223      0.96891462674622
  H   3.35924774914532      0.37510542466551     -0.90526726803124
