23
Coordinates from ORCA-job ./opt_b97-3c_parallel
  N   -4.70030882921390     -0.28882116829165     -0.71580979173026
  C   -3.54983609244411     -0.33328382768535     -0.53681297622367
  C   -2.16510846993140     -0.31304401322271     -0.29318451277558
  C   -1.44002759472834     -1.49462363171611     -0.35439761477920
  C   -0.10680908494177     -1.74303414979209     -0.08089024626589
  C   0.96312319051820     -0.85975106118278      0.11553100973368
  C   2.21797486457649     -1.42168803548986      0.45690793691829
  C   3.50418902376774     -0.93381200513493      0.36878790034674
  N   4.00701016403186      0.19703243096903     -0.13565730750725
  C   3.22562327106717      1.19114307791534     -0.53695122133103
  C   1.85771074257781      1.40165108699714     -0.45527348030550
  C   0.80276639502374      0.57774548443393     -0.01847540640559
  N   -0.32478262483271      1.23273857673347      0.27569541256932
  C   -1.59296100202128      0.90020613706310      0.24119462919378
  N   -2.44179768340481      1.80862454607033      0.75443429960870
  H   -2.07362314008825      2.69020225053150      1.06153463275770
  H   -3.43385751080997      1.65411749473628      0.76947349233841
  H   1.53014173543137      2.39703517927749     -0.72900316037269
  H   3.77995763586797      2.02538641216143     -0.95983542700520
  H   4.27111298751089     -1.61842616207841      0.72124361634454
  H   2.16244532228188     -2.44574779004012      0.80913079119919
  H   0.16889946862927     -2.78948940831941     -0.09326473552089
  H   -2.02256545687374     -2.36940918923977     -0.61597837168604
