32
Coordinates from ORCA-job ./opt_b97-3c_parallel
  N   5.21972968298489      1.40855959210061     -1.13043500176564
  C   4.16613123664491      1.11689163855662     -0.73603644369185
  C   2.88885593365339      0.68966130446140     -0.30499581959321
  C   2.19678101459352      1.54023639894582      0.57842337022682
  C   0.86638333656095      1.55691605987994      0.89687962965606
  C   0.41992038216027      2.46319932327303      1.88712612365305
  N   0.04741987537727      3.18013316896513      2.72170391657679
  C   -0.14651104035872      0.70891135381537      0.27123488408384
  C   -1.31227809167454      1.26827181013959     -0.20070361091256
  C   -1.34949480629442      2.68148557932668     -0.32215380991060
  N   -1.44404976354018      3.82005203997953     -0.52924329503592
  C   -2.49618593304327      0.59561105308675     -0.70723208017790
  N   -3.29363646960474      1.30174334884840     -1.52221129838909
  H   -4.19474912746106      0.94118777554054     -1.78879334280155
  H   -3.10887062442373      2.27161788634289     -1.71339482915955
  C   -2.88951283975698     -0.69002040067953     -0.30029650406993
  C   -4.16742565501494     -1.11750384909261     -0.72919713150298
  N   -5.22159227073885     -1.40940559483226     -1.12189615514679
  C   -2.19612382270733     -1.54007482630655      0.58259475514827
  C   -0.86525267660425     -1.55656718490346      0.89907766647935
  C   -0.41731055711103     -2.46227249140504      1.88918111359348
  N   -0.04355519078741     -3.17871762245744      2.72361802686709
  C   0.14670873369696     -0.70893115366997      0.27142859229792
  C   1.31176957923393     -1.26856740046332     -0.20192091140178
  C   1.34879772124711     -2.68184806101311     -0.32260563334482
  N   1.44300720338415     -3.82053767220054     -0.52918565437833
  C   2.49492475528983     -0.59620658456360     -0.71059308698177
  N   3.29116727462805     -1.30281500839830     -1.52633856488986
  H   4.19188224473955     -0.94241746174555     -1.79445708747294
  H   3.10611961017234     -2.27279574367640     -1.71668148666479
  H   -2.79294265614895     -2.32258743110069      1.03161048211503
  H   2.79426938790633      2.32300915760065      1.02609079088290
