27
Coordinates from ORCA-job ./opt_b97-3c_parallel
  N   3.76203427130806      1.73811909852192      1.10097724934334
  C   2.85336913166509      1.12872267900867      0.69649193224248
  C   1.78213827267413      0.36911867298811      0.19496867676317
  C   1.99242442200699     -1.00057006610059      0.04122031145549
  C   1.04683339170176     -1.95178865458631     -0.44389451972765
  C   -0.31482179079753     -1.90038365556519     -0.38658774411779
  N   -1.05451639197013     -2.98581126849471     -0.76852596049007
  H   -0.59119444444671     -3.72548654444511     -1.26821654308964
  H   -2.00360077629592     -2.81641923849052     -1.05040802661892
  C   -1.07947832728542     -0.75967237188952      0.13089029346232
  C   -2.22783242418980     -0.97511939980332      0.82618628121960
  N   -3.03533269815123     -0.01955305011522      1.39389698210826
  C   -3.22468599978533      1.12998650098463      0.84432501517737
  N   -2.90295079678004      1.54512005840837     -0.43353843647232
  C   -1.74585644991464      1.30874232925195     -0.93245950185462
  C   -0.65877948217807      0.58263821230726     -0.27047237540926
  C   0.60378525754601      1.09194861112411     -0.24257534811654
  N   0.80605899971432      2.39780974703280     -0.66235749460666
  H   0.09086302341570      3.05838028915701     -0.41099570978908
  H   1.73069967514601      2.76904107874029     -0.52298498358131
  H   -1.57751123495882      1.64370805587640     -1.95812304714206
  H   -3.83683019723634      1.84194044369713      1.39044518820323
  H   -2.50457007083078     -1.99079630442246      1.08255226388485
  H   1.48556397072067     -2.86399349247068     -0.83393142520562
  N   3.24064342445798     -1.50955551843208      0.26892765918519
  H   3.31160931979295     -2.47882535848981      0.51987567730162
  H   3.93196038449340     -0.91055870534783      0.68868340057618
