24
Coordinates from ORCA-job ./opt_b97-3c_parallel
  N   -4.88429207039135     -0.85604811084572     -0.13868736885543
  C   -3.72298071771021     -0.81518833091739     -0.18096118607360
  C   -2.31510095198898     -0.71439826208116     -0.18155422660661
  C   -1.60578194412496     -1.68460935248598     -0.92141586104626
  N   -0.35364357314666     -2.01980207888965     -0.84280866115722
  C   0.57926315507537     -1.43824812238517     -0.08462899052116
  N   1.39668182971298     -2.19159178385917      0.60326535976946
  C   2.63199911859906     -1.95069029336327      0.99696659234599
  N   3.53394388952866     -1.14910169295277      0.45792079146058
  C   3.20338577013630     -0.11488377787364     -0.31130665918040
  C   1.97153150314081      0.51821201550386     -0.48699150586601
  C   1.98085493447983      1.72038088466990     -1.23543437057434
  N   1.99461230807992      2.68340644092061     -1.88443017027403
  C   0.69811465738244      0.01746375712348     -0.04397778470622
  C   -0.36734481541310      0.82265995685294      0.32629152772680
  C   -0.09010581716625      2.15783529932149      0.70391342125739
  N   0.05590280939481      3.24405103529335      1.08933511894667
  C   -1.75647849483308      0.43132756364008      0.43490410590422
  N   -2.57859281260657      1.28105305782415      1.06264983499521
  H   -2.24733049262276      2.17146982718292      1.39410406823288
  H   -3.57248671112810      1.12294011943223      1.06294321301067
  H   4.04493292423120      0.36719418015061     -0.79631357550470
  H   2.98498788518862     -2.57588598932388      1.80986086407932
  H   -2.19479714911112     -2.26555203753728     -1.62360831256066
