32
Coordinates from ORCA-job ./opt_b97-3c_parallel
  N   0.53648671289869      4.01964933090392     -1.23660516787005
  C   0.12186198087405      3.00052644620196     -0.86637308903829
  C   -0.42543546611188      1.74237680160587     -0.49653617616386
  C   -1.78337869336402      1.58871516969729     -0.83317255870696
  C   -2.69007363918354      0.62555784222586     -0.46444303579468
  C   -4.02813016215998      0.79424769758740     -0.89463533176396
  N   -5.14296376452890      0.89292843271839     -1.20755980703304
  C   -2.44321492872601     -0.46796494982266      0.44330610335397
  C   -1.17034113458686     -0.99130509413287      0.69765704528500
  C   -1.10890640640526     -2.03722181590544      1.64004257254216
  N   -1.13057738061703     -2.86756473982935      2.45531317127772
  C   0.08029915883955     -0.63201526047148      0.06019632749762
  C   0.45630499211340      0.77955007093124      0.01817423538617
  C   1.70314437632006      1.17259044486368      0.57632851873410
  C   1.77314076096260      2.38953175081255      1.28179844361900
  N   1.91486708586494      3.33845627027407      1.94070029901574
  C   2.90459328488601      0.41346151807968      0.53173595789806
  N   3.17224203559245     -0.61561429673455     -0.28209807582491
  C   2.31348957350398     -1.47306324349320     -0.76646297611499
  C   0.92171951573731     -1.64146847047206     -0.35572528542666
  C   0.40111081631718     -2.94438967084338     -0.52317354306090
  N   0.04093339164271     -4.02376128655733     -0.76124520926734
  N   2.78302395953916     -2.33733771920483     -1.67884370881536
  H   3.76821393682174     -2.33507311745202     -1.87491519431044
  H   2.22565007441926     -3.10309879466459     -2.01349801620986
  N   3.95069363487507      0.81257854633118      1.27037219140656
  H   4.84245499520052      0.38492127826912      1.09864634476814
  H   3.91177037516831      1.65316047566653      1.82089419741301
  N   -3.51327299958455     -1.02178846715309      1.03531899689718
  H   -3.41965522013569     -1.84563130164215      1.60428769035407
  H   -4.44119168504594     -0.69511645655441      0.83140103976196
  H   -2.18921927682693      2.39334031506514     -1.43049211480924
