31
Coordinates from ORCA-job ./opt_b97-3c_parallel
  N   -5.63686677488929     -0.29075049278188     -0.80555788232312
  C   -4.50964903976313     -0.21749096176182     -0.53049934762051
  C   -3.12588288290130     -0.21464347766873     -0.24413471153707
  C   -2.62251814500614      0.84717273883869      0.51568348691054
  C   -1.32167604126567      1.23694834015613      0.74696485814218
  C   -1.13672003274425      2.30416605543591      1.66174994859965
  N   -0.99357903747914      3.13349672622463      2.46224519246694
  C   -0.12815078411392      0.68157623654335      0.14289525081070
  C   0.87462545848615      1.53015617167080     -0.30505749665102
  C   0.57113235057336      2.91054333956933     -0.46415478558301
  N   0.36342822537064      4.03259376189873     -0.67413022179205
  C   2.16383678986317      1.17790653526895     -0.78147264967419
  C   2.89475404421635      0.04308264954625     -0.57891989160652
  C   4.20020867151901      0.00227450074153     -1.12738659246503
  N   5.28221232792671     -0.07590448348666     -1.54320266001769
  C   2.51660373149369     -1.08020395707768      0.26232052684775
  N   3.52259753969222     -1.84536219583991      0.71827879484572
  H   4.47718657487367     -1.64324075848674      0.48030286518601
  H   3.33884323803845     -2.67050579881348      1.26258311577436
  C   1.19862647714372     -1.40363676839227      0.56650610774700
  C   1.01034373127259     -2.56170351177473      1.34394391301924
  N   0.91718637644454     -3.53579372752644      1.97564519016307
  C   -0.02215552515571     -0.76750428547647      0.07085731089523
  C   -1.03702397228742     -1.60212422547380     -0.30735997030216
  C   -2.39469951967995     -1.35481349653195     -0.64218802357310
  N   -3.03534730654058     -2.33923426185159     -1.29837057687221
  H   -4.02281154859662     -2.28539319111260     -1.48259905747802
  H   -2.56626008592393     -3.19461268929078     -1.52988450150966
  H   -0.75234898601362     -2.64355411821604     -0.39156420805265
  H   2.66172361240152      1.95593616744594     -1.34343952947698
  H   -3.37417897226619      1.48895198353238      0.95545319012259
