29
Coordinates from ORCA-job ./opt_b97-3c_parallel
  N   -5.39372965804019     -0.86419525272967      1.01770450387244
  C   -4.27510144261117     -0.72453884993245      0.73694686833166
  C   -2.90963897571190     -0.54366988863707      0.40237383248887
  C   -2.01988278848978     -1.56145273705495      0.70894380267053
  C   -0.66423214818379     -1.65818468546937      0.42581272184287
  C   0.27677272943670     -0.70965615954001      0.02962088932353
  C   -0.02473966850376      0.71474335512818     -0.05019865686675
  C   0.83385839796280      1.72471197571652      0.23905444897837
  C   2.21231837766862      1.70037324399204      0.62140454236061
  C   3.09377856399665      0.66308258965107      0.43397609676235
  C   2.83795544018159     -0.59284059066304     -0.15055013823253
  C   1.57271114478663     -1.19771169999791     -0.35287998750215
  C   1.61658386856263     -2.50804617555389     -0.86757729525144
  N   1.73135967410782     -3.58294391014705     -1.30285927227871
  N   3.93452719489556     -1.32148520347438     -0.46378748511943
  H   4.84417550458008     -0.90290346774600     -0.44294730651101
  H   3.85026761142207     -2.22939798564300     -0.88683147795283
  H   4.12553103661384      0.84666190390647      0.70969754470496
  N   2.66738318703764      2.85584759663890      1.17963476437941
  H   2.09733782086327      3.68026444155222      1.14236008283551
  H   3.65432172160633      3.01202690485865      1.27226032395337
  H   0.41708414611038      2.72148316781510      0.16704501601560
  C   -1.33207382157305      1.11472763605498     -0.60805168109769
  C   -1.29150203745810      2.24378488061776     -1.46478230048314
  N   -1.24744935418309      3.17858706584188     -2.15483006774923
  C   -2.57441970778728      0.60727749931710     -0.34191234183104
  H   -3.40645746218481      1.15851021179236     -0.75992581537533
  H   -0.25292174625360     -2.64263211062095      0.60425643760476
  H   -2.45283392680437     -2.43666866622313      1.17596880286119
