28
Coordinates from ORCA-job ./opt_b97-3c_parallel
  N   -2.36743898472422     -3.40035301450796      0.01307604185758
  C   -1.47234805875817     -2.65933007799245     -0.04965400967868
  C   -0.37384283289937     -1.76851789649720     -0.13018815009262
  C   0.84374264124358     -2.39905199261591     -0.49401700442753
  C   2.11896118449888     -1.94165802364702     -0.48566838381033
  C   2.56417716935416     -0.69200739402952      0.03034502468861
  N   3.89744529613377     -0.59998248497682      0.27182656522839
  H   4.26299351219741      0.21095793896440      0.74218039728686
  H   4.43315494242811     -1.44345280307510      0.35888703352707
  C   1.74766318074271      0.41626201032462      0.25963609013906
  C   2.38350170842328      1.52670261183326      0.84598618888223
  N   2.97585398874609      2.40241789105740      1.33834323112383
  C   0.36285035554170      0.63322491718125     -0.16445556222003
  C   0.07819088274432      1.89732672498708     -0.63177920743929
  C   -1.14263061304295      2.56318258764547     -0.84817258248675
  C   -2.39484623224745      2.22818479621116     -0.44744517941216
  C   -2.74903363282233      1.05766541473944      0.28039504002075
  N   -4.00790948936322      1.04422008259839      0.81824639713126
  H   -4.40133138815964      0.16288336980902      1.09669685738476
  H   -4.67594643742653      1.71575489909366      0.48661008412788
  C   -1.95758703955985     -0.05968573726593      0.46831788009010
  C   -0.65181418228923     -0.39394052690492      0.03377158565938
  H   -2.46452741512076     -0.87328074361597      0.97267881269290
  H   -3.19056039861245      2.93553622166803     -0.64781710326798
  H   -1.04915245102720      3.51669667328084     -1.35433093742843
  H   0.94753780852801      2.50030129447305     -0.85852626740421
  H   2.89216803152574     -2.63150518111045     -0.79816646945704
  H   0.72494499874686     -3.42978341982958     -0.80459520301599
