30
Coordinates from ORCA-job ./opt_b97-3c_parallel
  N   -5.72299052696197     -1.31675470468977     -0.65584642721726
  C   -4.63462534807800     -0.99184752865947     -0.41576432406608
  C   -3.30029840501681     -0.62879931694131     -0.11337787175607
  C   -2.75658393826374      0.50239719120302     -0.69002019988057
  C   -1.51305872479776      1.11384154755176     -0.44005282685105
  C   -1.36360168107326      2.39096998474213     -1.04656587847996
  N   -1.25980771119220      3.40838802015092     -1.59526781457084
  C   -0.37235716848626      0.58124696135078      0.20026068087113
  C   -0.33128716903854     -0.85494442828796      0.44594856849474
  N   -1.36563037462371     -1.39715470391246      1.11855181854533
  C   -2.63570939736712     -1.34299260085074      0.92339464018039
  H   -3.24927152544527     -1.88005536104437      1.63966093408139
  C   0.72526072231616     -1.68467007531423      0.11944822520663
  C   0.49948881444097     -3.07399816861562      0.26562306427246
  N   0.38346508358037     -4.22809102473286      0.33369489959298
  C   2.02763601790368     -1.29997263121601     -0.35747187709168
  C   2.62890238718841     -0.04124973078680     -0.16397974491042
  C   3.97745897548351      0.05701084065553     -0.55756024487282
  N   5.09554251161884      0.11637854662364     -0.87672852653020
  C   2.08174756649350      1.11308504495355      0.47897753372989
  C   0.69847751223207      1.41007415030150      0.60837023505798
  C   0.38848975224553      2.68664947299909      1.12071678972971
  N   0.21570514111091      3.72939085112168      1.60667504118776
  N   2.95195779138757      2.04887571837988      0.88506662017376
  H   3.93852309205328      1.94503877619828      0.72306656114419
  H   2.62565041587165      2.94554085168164      1.20538974228490
  N   2.74934493879954     -2.26718142378869     -0.94248068529340
  H   3.71895823388292     -2.12672017999857     -1.16981183728815
  H   2.38572815390625     -3.20149659334505     -1.01785123169166
  H   -3.40264259507098      1.04832091527123     -1.36339352385220
