19
Coordinates from ORCA-job ./opt_b97-3c_parallel
  N   -1.90714018196534     -3.02957476883519     -1.11155697898635
  C   -1.67576328094595     -1.94518849991660     -0.76438724741900
  C   -1.36766386570754     -0.63616681495839     -0.32483743894403
  C   -2.39449546568916      0.29430163592713     -0.29223446481419
  N   -2.43690006023045      1.50326732151261      0.28522841849452
  C   -1.36834371509291      2.15828649962429      0.67722606198516
  N   -0.10431794590782      2.04431539393004      0.27628282351691
  C   0.48746498584260      0.98044947873026     -0.17724604492303
  N   1.59168629633533      1.11486831710285     -0.94434079771105
  C   2.70997071537297      0.49743778641874     -0.76843926555499
  N   3.10584568212492     -0.33042282220624      0.23412586484220
  C   2.24893468166579     -1.14290744352344      0.80073656114157
  C   0.86168786785145     -1.32076893806468      0.56431205778174
  C   0.00306847858715     -0.38103847181528      0.05495279821766
  H   0.43961566869948     -2.26495102760177      0.88578656520027
  H   2.69204066409544     -1.83365363187775      1.51365385987865
  H   3.47799064154049      0.68576067165611     -1.51225426837862
  H   -1.55239402918738      2.99062962929964      1.34872288591618
  H   -3.34608259778752     -0.03614183750058     -0.69375173234564
