31
Coordinates from ORCA-job ./opt_b97-3c_parallel
  N   3.89469548757136      1.59280569819864     -1.97784957406427
  C   3.10980413276337      1.08127601553651     -1.28381480018120
  C   2.20245335015055      0.42245426185232     -0.43285791205447
  C   0.97331791454247      1.12149717035275     -0.10163428252833
  C   -0.20999309087783      0.58487047468934      0.24930868102989
  C   -1.26761987308453      1.47105907216530      0.77364013501679
  N   -0.82422890841336      2.50157392806904      1.57142084314389
  H   0.04400196469389      2.33996745641740      2.05170209193396
  H   -1.51400232828740      2.98584682273560      2.12194587354888
  C   -2.58698792573103      1.36527118422873      0.46545561167010
  C   -3.19199181497308      0.43323254435284     -0.43670815599627
  N   -4.43328251827833      0.83194694380469     -0.91533303531842
  H   -4.52356348559955      1.81748795111092     -1.09994003266026
  H   -4.80554766310914      0.27264387728064     -1.66457225028319
  C   -2.71693739174838     -0.80909531367700     -0.75808432168997
  C   -1.59073422612355     -1.46778282767855     -0.18608959249465
  N   -1.64673086030916     -2.86109186458641     -0.16742974228783
  H   -2.45864525816300     -3.26092611533270     -0.60441815249009
  H   -0.80007348589741     -3.33784524053342     -0.42884860551910
  C   -0.46593934238883     -0.86458838035167      0.33281513029687
  C   0.48541837215714     -1.65924849261126      1.05625799137329
  C   1.83399942661004     -1.55383771243411      1.06066970328465
  C   2.63845385082085     -0.73910506524496      0.18069092960527
  N   3.93000226119999     -1.16065283784718      0.03233837716087
  H   4.49486578323326     -0.71744954712679     -0.67364180251866
  H   4.12263753621757     -2.13494658183660      0.18088014901139
  H   2.38914813326073     -2.22191890359763      1.70923310836046
  H   0.06578811537384     -2.45499195317278      1.66931817404383
  H   -3.31244745726192     -1.39745784071566     -1.44933727083470
  H   -3.26299665976440      2.09276412641703      0.90262041293386
  H   1.04327284201632      2.20227419033463     -0.14369573419316
