31
Coordinates from ORCA-job ./opt_b97-3c_parallel
  N   -4.51269212156788     -1.72455682461993     -0.99503501417252
  C   -3.61383330040524     -1.07407321501299     -0.63614857208840
  C   -2.50767720635606     -0.33002035386370     -0.19453984988046
  C   -2.73662980138503      0.72608411750022      0.79317364681116
  N   -2.13211906868850      1.87491735490546      0.84804619043961
  C   -1.06943422084067      2.22081264106553      0.09276522211101
  C   -0.01911404981635      1.44802043563123     -0.32238951485587
  C   1.05015533806534      2.10211384575301     -1.00747075098962
  C   2.34863855459031      1.73180716112664     -1.08885107732044
  C   3.01208230104654      0.74194151889393     -0.28767890565986
  N   4.36342161821447      0.87222660124970     -0.23787013361440
  H   4.89195444470115      0.31056050855755      0.40838169607121
  H   4.77506707414201      1.75042763427738     -0.49480674629087
  C   2.39884773904249     -0.28463569609949      0.42764218915560
  C   3.22796224078953     -1.03970419844450      1.27455153165483
  N   3.94417691767952     -1.65704075486899      1.95849084421773
  C   1.03922382585710     -0.77357884791478      0.22024483189948
  N   0.89085798431859     -2.14954431837743      0.39228728825987
  H   1.66566704497286     -2.60893527163453      0.84252245651455
  H   0.01207039122408     -2.43565974260370      0.79315745986690
  C   -0.02218081958536     -0.01682741381787     -0.17624737751594
  C   -1.24951929702243     -0.66858427088218     -0.66236475106157
  N   -1.10287640886026     -1.60808476957374     -1.61970805952276
  H   -1.89318043023455     -2.16600478329457     -1.90042357913257
  H   -0.19425207453762     -2.01961555148458     -1.73968406290931
  H   3.00482884782264      2.35593334859242     -1.68319588049401
  H   0.79510908874595      3.03587071633782     -1.49992456918667
  H   -1.01576975675583      3.28476708083462     -0.12137522742720
  N   -3.72972386779975      0.49877951473193      1.69581205248755
  H   -4.07621366436646      1.30649365520738      2.18394559446501
  H   -4.38616447069166     -0.24333352337176      1.53041034396907
