25
Coordinates from ORCA-job ./opt_b97-3c_parallel
  N   3.15563941070832      2.45477068791980     -0.47961640751672
  C   2.48205769853306      1.54233295923056     -0.22295886080601
  C   1.76161656510767      0.35028876727198      0.01976799590788
  C   2.44207293043422     -0.87269035696301     -0.30872120717692
  C   2.07664680137041     -2.13825523989638      0.15583467166611
  C   0.95764903814099     -2.44592949867895      0.91228405000666
  N   -0.17797756429908     -1.79851647704608      1.04554624924712
  C   -0.48606780963488     -0.58620268155798      0.58669790724109
  C   0.48111870895962      0.51033580368465      0.55917152989965
  N   0.15492327121379      1.70631431226989      1.06543805280838
  C   -0.99767229363659      2.31856209316110      0.99005952876616
  N   -2.05598293706052      2.09745337618238      0.22067693246534
  C   -2.36588714111683      0.89750138559829     -0.26260452396817
  C   -1.78725837651895     -0.37044502388561      0.10737986428527
  C   -2.57714949762511     -1.51615819424769     -0.12659471762734
  N   -3.29635677980019     -2.39455615458592     -0.38100690042450
  N   -3.40930833472534      0.88206517790325     -1.10933549141217
  H   -3.82203420113468      0.01851346331723     -1.41533959574541
  H   -3.93185800580575      1.73340309863766     -1.21479758106385
  H   -1.06846281076364      3.21602568814966      1.59722699452561
  H   0.98027323215394     -3.39889390692255      1.43327677900171
  H   2.78737193575674     -2.93994124694006     -0.00026597730290
  N   3.57952922731633     -0.76419141537023     -1.02919106395959
  H   4.18088408436460     -1.56037419825723     -1.13114417318478
  H   3.98342263786295      0.13816065692564     -1.21504183503279
