25
Coordinates from ORCA-job ./opt_b97-3c_parallel
  N   3.61967334840531      1.38550214697138      1.65657051304380
  C   2.89594845279858      0.62906084159505      1.15122716092343
  C   2.00394417294951     -0.27481846813080      0.52320879773309
  C   2.47904633775319     -1.55963032517476      0.34264637448605
  N   1.98234018731556     -2.59310754051868     -0.34113362451647
  C   0.73074416181051     -2.70113305247370     -0.72273249021816
  C   -0.39769288298905     -1.90835734884119     -0.44209187257467
  C   -1.65076759128288     -2.50361438065418     -0.74206703041697
  N   -2.65042519109012     -3.03014849848422     -1.01073756961074
  C   -0.45311165069776     -0.57632301052831      0.04561242732905
  N   -1.64101492979600     -0.14609186788633      0.42706812109020
  C   -2.12030401023588      1.08781251600577      0.49879384553230
  N   -1.76031808532328      2.19885089313018     -0.17297564209437
  C   -0.50277672861188      2.40217181576891     -0.51240816262348
  N   -0.26401673048164      3.54837821878150     -1.17635963076692
  H   0.65145307692373      3.79104760582640     -1.50345799628273
  H   -1.03512031453686      4.15678813446886     -1.38501847989284
  C   0.65480915285883      1.61651602122622     -0.18814019172000
  C   0.73226932296634      0.28301240537061      0.09142070408821
  H   1.59104639104366      2.15900442245541     -0.20389604029413
  N   -3.21069775382120      1.22815681870080      1.27288507619980
  H   -3.70989905478447      2.09791268194027      1.25108595256222
  H   -3.66940475056971      0.40348285883484      1.61516599010291
  H   0.51959001194919     -3.59918707227953     -1.29552086116789
  H   3.45841312934472     -1.75335604320748      0.76813970728860
