26
Coordinates from ORCA-job ./opt_b97-3c_parallel
  N   3.29591758512669      2.62723821869713     -0.45093697220841
  C   2.28672130906325      2.08880113430680     -0.24477093835769
  C   1.04296859949872      1.45995316216298      0.01812825100873
  C   0.05400413636852      2.32284307928995      0.59581173160754
  C   -1.28204485829787      2.16616342520238      0.67302047836308
  C   -2.05521835074312      1.12721587148775      0.04743745019169
  N   -3.36310739846056      1.42653923501675     -0.16471234700536
  H   -3.64160292800304      2.39032802216918     -0.18545474527342
  H   -3.92869567761994      0.79379629286070     -0.70605969776142
  C   -1.55240031360353     -0.11408283972727     -0.29837294141819
  C   -2.41785296105428     -0.98510538615088     -0.98374470553781
  N   -3.18346377147570     -1.66079625116533     -1.54629270529272
  C   -0.25032272946494     -0.67260258213982      0.10887519767230
  C   -0.25950975665188     -1.94256415687960      0.62721018599026
  C   0.78867789970108     -2.85812649559674      0.86357936609952
  C   2.05057843178256     -2.82995264996200      0.35306498027852
  C   2.56500762370325     -1.83728829010138     -0.51213016119474
  C   2.08289334480283     -0.59245253340251     -0.76037296206815
  C   0.95644425035307      0.08842984784509     -0.17385526233946
  H   2.66207597217908      0.01096586588803     -1.44876850854889
  H   3.48982440419947     -2.08674287242785     -1.01905309455667
  H   2.69558154740645     -3.67393843501484      0.56111225184137
  H   0.51440685638075     -3.72998566545876      1.44506477305848
  H   -1.24307432306156     -2.31192311006525      0.89151915849335
  H   -1.84915790007197      2.95842378595200      1.14528238549800
  H   0.45001859784405      3.24636655709336      0.99937224366841
