30
Coordinates from ORCA-job ./opt_b97-3c_parallel
  N   -2.66449910588036     -1.54751002942411     -2.55300380822343
  C   -1.86507419525090     -1.56938068395216     -1.70926361902126
  C   -0.84554619029956     -1.59966065840539     -0.72908988101653
  C   -0.27078258123863     -2.83144506307109     -0.47509196236292
  N   0.69736093178378     -3.18900983379732      0.36066174800702
  C   1.61390568427355     -2.35065838302500      0.81918034908561
  C   1.84682371370597     -0.99822497519129      0.42546517844494
  C   0.94908396919196     -0.06512501761266     -0.01511275697449
  C   -0.48468895214741     -0.33728868190351     -0.09723084162903
  C   -1.47346557450924      0.53452280957551      0.29010935758702
  C   -2.80007413571828      0.04128523721315      0.36452428679731
  N   -3.90449093750957     -0.27714779387466      0.53647421240098
  C   -1.32606365538002      1.91951296509250      0.72490656093288
  C   -0.28306774424537      2.74538037353936      0.39909293718626
  C   0.89607750471540      2.45923472173359     -0.32747514829532
  C   1.45302148390950      1.19059768272129     -0.53300162123351
  C   2.69619830211343      1.14412714210416     -1.18636031306300
  N   3.72902853037127      1.16467407573408     -1.72662827938420
  N   1.59773589371619      3.54928764247934     -0.74454217936467
  H   1.11132200584804      4.41872092103545     -0.85934465233934
  H   2.40493934300655      3.41803743662026     -1.33028759754306
  H   -0.37740096102628      3.77575858182621      0.72137229214325
  N   -2.34632859203208      2.41465458325857      1.47839542381642
  H   -2.41465712496977      3.40837006279017      1.60091739092929
  H   -3.21714962170895      1.91291668172128      1.51899305363935
  H   2.86872969204924     -0.65496488375948      0.52885141292520
  N   2.48641852485301     -2.88686299491707      1.70184223843214
  H   2.45599785177184     -3.87973479503860      1.85101224760997
  H   3.28230523468494     -2.37397944957345      2.02984353144911
  H   -0.72477384827728     -3.66590263099875     -0.99988539043713
