26
Coordinates from ORCA-job ./opt_b97-3c_parallel
  N   -3.34257026553585     -0.31733202610091     -2.18797578094716
  C   -2.51777648607854     -0.65987292262798     -1.44497916915184
  C   -1.47319368332272     -1.08183247530220     -0.58678341450079
  C   -1.38052136901176     -2.41536951735111     -0.28285665249054
  C   -0.36375564238316     -3.06888604954009      0.43446369450743
  C   0.90860713357664     -2.61539297315533      0.63541113710612
  C   1.49217927195341     -1.39855734694037      0.20041354527952
  C   2.91193942980479     -1.34127070409872      0.21696643654591
  N   4.07220042985060     -1.32452059385505      0.25091569457549
  C   0.84556134914921     -0.23305678339441     -0.21222193495003
  N   1.58166227095352      0.72609839402237     -0.81556223478287
  C   1.64504471302657      1.98453775950746     -0.51085790481278
  C   0.90251827709680      2.63785931826875      0.54904358850120
  C   -0.32608851172643      2.25147980733910      0.93985555115951
  C   -1.09162288878903      1.11424874958017      0.49353423994075
  C   -2.47803482927811      1.18727852897886      0.78722387157437
  N   -3.59428169607746      1.27826593616565      1.09260549735774
  C   -0.59037419221488     -0.03945681402229     -0.06650364074756
  H   -0.84538198328286      2.89743996976633      1.63562559300784
  H   1.30184673210522      3.56425022134170      0.94066154056374
  N   2.49322221017110      2.75973593649145     -1.22342203075580
  H   2.96337711426469      2.34071927455347     -2.00714600438699
  H   2.40123897430216      3.75799564495231     -1.21544128203357
  H   1.59941545193453     -3.30497851770299      1.10243587416733
  H   -0.57695890313791     -4.07935204714762      0.75523746770674
  H   -2.19649109345029     -3.03450540582874     -0.63406193073386
