35
Coordinates from ORCA-job ./opt_b97-3c_parallel
  N   -3.37354560944774     -2.32905349712380     -2.66504578528613
  C   -2.83708492370632     -1.63174099058339     -1.90430358115319
  C   -2.15213386704843     -0.83964932585439     -0.95106299732318
  C   -2.64695034016091      0.41119635186806     -0.69222483867487
  C   -2.17406690740920      1.39578188493727      0.21376664782408
  C   -3.07564885968950      2.40928598200915      0.60774830369468
  N   -3.75669391439901      3.28049447893787      0.97026281255142
  C   -0.84592018639670      1.52735628082385      0.63788674494746
  N   -0.48705645524504      2.51828622175378      1.47157833420378
  H   0.48994222895998      2.73730883576607      1.55950122368432
  H   -1.14795540480608      3.23393743363819      1.72943942811377
  C   0.18481363053117      0.60695251453015      0.17342645924479
  C   1.37108587038680      1.04232667103454     -0.34182898465217
  N   1.57377731484610      2.39536072016447     -0.61553293494610
  H   2.42398875442120      2.59784086392576     -1.11642143068019
  H   0.78714775711872      2.86169123494137     -1.03969973266785
  C   2.49570283695616      0.16439461607720     -0.59657059685354
  C   3.38375104730541      0.54918336555206     -1.61766856703747
  N   4.14357479824868      0.85591779788485     -2.44746733603806
  C   2.88072128238119     -0.92023382994339      0.20079964915113
  N   4.12349372563097     -1.45812119385264      0.02550485993264
  H   4.67458166453938     -1.15957272741663     -0.76164319390028
  H   4.27439046438267     -2.40516408132266      0.32058393643210
  C   2.13362037739708     -1.47691601103697      1.27952327907870
  C   0.77647583416619     -1.45032927534371      1.41176117629931
  N   0.15137742949495     -1.96832296991722      2.50504016361522
  H   0.67957554487275     -2.54277273824142      3.14022693629091
  H   -0.81206735572418     -2.23451409793505      2.39149354024508
  C   -0.09309312188749     -0.81352856315806      0.40737986076945
  C   -1.10251402055562     -1.50036267001364     -0.18480453560919
  N   -1.25876543473168     -2.87216576608591      0.02424050879480
  H   -1.94525288048513     -3.30749736601802     -0.57174803859322
  H   -0.39400870195998     -3.38991994798886      0.00853285737165
  H   2.71336051146579     -2.00205502924460      2.03109763493187
  H   -3.55560533944634      0.67685171233051     -1.21740362596064
