25
Coordinates from ORCA-job ./opt_b97-3c_parallel
  N   -2.60435178751360     -2.77172025450514      0.07164494915044
  C   -2.06060893718454     -1.74571841860529     -0.03028749134893
  C   -1.46276163338238     -0.47428297142421     -0.11874444261121
  C   -2.31497679859404      0.62629872859771      0.27803391326987
  N   -2.19378024020058      1.90795914442604     -0.02582670395798
  C   -1.16596208821604      2.36218010688323     -0.75310785707192
  N   0.06043122571311      1.96571398753000     -0.88181151849156
  C   0.64461580592258      0.83826186528758     -0.36982834060839
  C   1.94626647527265      1.01519167404788      0.05099512367570
  C   2.98341559431226      0.10620714800825      0.34297018492583
  C   2.98173021997716     -1.24992865933024      0.02433270883526
  C   1.92355157559380     -1.96646691164836     -0.50920192500006
  C   0.59849404928033     -1.62843615590946     -0.68754524195861
  C   -0.07405690336679     -0.42671511999273     -0.38238080481371
  H   -0.03690071936556     -2.44247413360124     -1.01077714770425
  H   2.15785576815468     -2.99299273301931     -0.76664855738729
  H   3.90209627225218     -1.79526773809788      0.19522405124119
  N   4.10748908476024      0.63096214552123      0.92322301311856
  H   4.22732557324480      1.62768471331255      0.91882821633553
  H   4.96134833531717      0.10532284322963      0.86878762123827
  H   2.22125126601146      2.06350857051970      0.09387075363258
  H   -1.39606408741068      3.27561240326274     -1.29774541300597
  N   -3.41270200214651      0.32329183810845      1.00255798652348
  H   -3.69192368537499     -0.62874790715568      1.15834491169985
  H   -4.09525095065302      1.05102393885803      1.11610089750693
