26
Coordinates from ORCA-job ./opt_b97-3c_parallel
  N   -1.13950678931785     -3.11590776280069      0.77592856601486
  C   -1.10162015523901     -1.98493767112239      0.49012290547557
  C   -1.13930009605927     -0.61695710697536      0.15751848028299
  C   0.14532241378291      0.00871959451173     -0.04560250836082
  C   1.18991292131764     -0.88500210658001     -0.30314995995872
  C   2.58755610138289     -0.81412384392934     -0.22956359011874
  N   3.26357373668311     -1.95997398038085     -0.55389078067946
  H   2.76232489135314     -2.83039496346476     -0.54167459533699
  H   4.23069092334748     -2.02954626111251     -0.29411268411807
  C   3.35589049895881      0.29897423694336      0.13369677738686
  C   2.85918270903379      1.55768906763584      0.37481570277411
  C   1.56717780196024      2.04999023890381      0.30109496930028
  C   0.32301113488847      1.44806111953100      0.03792916734798
  C   -0.74505112031806      2.35526458062784     -0.13878742512822
  C   -2.09554397473998      2.17686141878343     -0.34375869545731
  N   -2.89575966221595      1.12105290558838     -0.31944004921884
  C   -2.46679389140963     -0.10969049415349     -0.02260011155334
  N   -3.48740848878670     -0.98431709552941      0.09837596436449
  H   -4.41357732725723     -0.61663034209569     -0.01880447470799
  H   -3.35386254423609     -1.95438895697698      0.31849874790059
  H   -2.63657827605218      3.09846762631100     -0.54653381726170
  H   -0.44338535232196      3.39463955783252     -0.16980591404589
  H   1.49755492522479      3.11532077950598      0.48166256826182
  H   3.60279759715057      2.30050845216601      0.64118362845331
  H   4.42809824667706      0.16278799683386      0.20124013447692
  H   0.84649913108917     -1.87777191957666     -0.56267588488436
