32
Coordinates from ORCA-job ./opt_b97-3c_parallel
  N   -4.71677771677439     -1.19504257791487     -1.16430157307595
  C   -3.74401246907426     -0.74226905234635     -0.70685226167784
  C   -2.55278927732564     -0.23708980364138     -0.16187158128279
  C   -2.64708504747121      0.58445950984121      1.05070471798538
  N   -1.90080111519177      1.59588767430030      1.38511523364051
  C   -0.82845996277770      2.00128841355381      0.65901054580213
  C   0.05759481366385      1.23624533801774     -0.02215302517010
  C   1.14417931707940      1.85989413695918     -0.78469614213743
  N   2.40188088291942      1.52335178195493     -0.75247428527031
  C   2.90686775525210      0.55124991267746      0.04373326362212
  N   4.17005123241050      0.81880270498639      0.45647874954637
  H   4.63633011834766      1.58316586047437      0.00396060888876
  H   4.73819678755066      0.09515972822821      0.86106589987138
  C   2.30716568648196     -0.66670991286051      0.39826579448851
  C   3.11713033397001     -1.59481271543145      1.07413005716917
  N   3.81477635070470     -2.35464298473107      1.61907634356244
  C   0.96963716534771     -1.08392464658893      0.04860205933265
  N   0.77152895878389     -2.46114803265456     -0.06272764392580
  H   1.53814496829272     -3.02029999890454      0.27693676930670
  H   -0.10422581681465     -2.78874503011489      0.31344486997741
  C   -0.06460937891781     -0.21681202262690     -0.17879691570172
  C   -1.34941394598374     -0.66028682899074     -0.71164967488745
  N   -1.33409107646115     -1.47780016258372     -1.78682740637887
  H   -2.18471180355482     -1.92118354685331     -2.09385941964051
  H   -0.47188068417483     -1.94349598555211     -2.00978319668945
  N   0.80883542217579      2.89669043893422     -1.58149947459410
  H   -0.15424576556446      3.05431767109580     -1.80952490302356
  H   1.51705121589568      3.29951097723889     -2.17163823448255
  H   -0.64316563165777      3.07028852198535      0.71291482663584
  N   -3.66982329907064      0.27183531717034      1.89356610716290
  H   -4.41132330471898     -0.32662105702585      1.57667625344531
  H   -3.90941068584493      0.97106936939919      2.57479643470181
