26
Coordinates from ORCA-job ./opt_b97-3c_parallel
  N   -5.24771451496742     -1.21829011039971     -0.43883874396849
  C   -4.13520620779594     -0.94230465646269     -0.24551872116060
  C   -2.77461367685399     -0.64081516049359     -0.00790330408499
  C   -2.05311291313522     -1.49569527246852      0.86532844382646
  N   -0.77625625186783     -1.58719437013432      1.02777770130303
  C   0.24867074363336     -0.95061356971706      0.39574261612754
  C   1.32153854300728     -1.73669472817658      0.06796074373035
  C   2.63669209797050     -1.35144789975058     -0.30789429189226
  N   3.27513455755452     -0.21397023849258     -0.07998356300123
  C   2.70216681375173      0.90159973427511      0.37533742200051
  N   3.59268305083298      1.83602410371981      0.78175756706757
  H   4.56314836519902      1.67623990901174      0.57896255854065
  H   3.29949669313884      2.77432766007804      0.98040984985755
  C   1.34070639958867      1.27953252872567      0.37750135986556
  C   0.21879781618477      0.49891014935249      0.17846581982145
  C   -0.99236074893667      1.11855909388884     -0.27760559793858
  C   -0.86897881898268      2.46403070237026     -0.70920745424496
  N   -0.75565355484544      3.56981402778677     -1.04952058997227
  C   -2.25968165339364      0.56575111149406     -0.46237744256818
  H   -2.96263808677941      1.20703708842094     -0.97732178938963
  H   1.17144445673056      2.34623442786548      0.44451226171492
  N   3.40904255909376     -2.31895772449105     -0.85215266722314
  H   3.00525787017688     -3.16319084955151     -1.21073054824711
  H   4.34718169571096     -2.08170871902034     -1.11948156094085
  H   1.15429941593501     -2.79974665511019      0.18888744800727
  H   -2.64599618105403     -2.14725376822066      1.50235982036787
