31
Coordinates from ORCA-job ./opt_b97-3c_parallel
  N   -4.06574030382339     -2.50556972378457      1.92887219373583
  C   -3.43569586402933     -1.74515248711456      1.31518621062619
  C   -2.65055606857432     -0.83443083989732      0.56586658567643
  C   -3.27335133396147      0.28190859924382      0.04973210477704
  C   -2.74541064133010      1.28020382857293     -0.78447370734068
  C   -1.41895386321182      1.61319943820354     -0.94406538724808
  N   -1.03792375553289      2.51805188826220     -1.88519059024285
  H   -0.16420098418051      2.99760507930243     -1.73809468509910
  H   -1.74586928255667      3.04079591709094     -2.37239677984235
  C   -0.34110907615110      1.02183582324844     -0.13977832830669
  C   0.58924855708149      1.78681753049857      0.49786092878891
  N   1.66513644093393      1.34954677820944      1.21472836201129
  C   2.37587858853241      0.29988639424794      0.92445206550995
  N   3.44043335285139      0.04842117601198      1.72951720570426
  H   3.73025993317928      0.78628823027558      2.34615004274197
  H   4.12275550776332     -0.64131016028900      1.47363776043178
  C   2.19022146687260     -0.63778402584483     -0.18357536399751
  C   3.32480501342846     -1.27966486641724     -0.70761496082979
  N   4.24604320403473     -1.83708828787880     -1.15379075406780
  C   0.94671971797370     -1.03319037750328     -0.64483626680179
  N   0.81709458550590     -2.00606806440558     -1.56288392281665
  H   -0.08389808720859     -2.18329268296322     -1.96551914715169
  H   1.62196958854729     -2.43312215258058     -1.99141666387551
  C   -0.29470735910116     -0.44188720852499     -0.12911028530476
  C   -1.31368206194886     -1.24873768674763      0.24437855536562
  H   -1.12686773237451     -2.31544003805142      0.29351748237958
  N   0.49103942674731      3.18728323070312      0.49091731246358
  H   -0.44681582047998      3.52909014277987      0.64470170912117
  H   1.12481308220136      3.57831005028889      1.17086252683923
  H   -3.47239074705301      1.86989016153154     -1.33294896701308
  H   -4.33654130333506      0.35567913423219      0.24522312086556
