26
Coordinates from ORCA-job ./opt_b97-3c_parallel
  N   -5.00506541952446     -0.65004285178616      0.11829789336718
  C   -3.86713544924512     -0.46929683198147     -0.04881163823813
  C   -2.49740075896155     -0.18483178316907     -0.20627221018719
  C   -1.72842751823508     -1.05621132203731     -1.01173059566936
  N   -0.44199878357183     -1.19540463186395     -1.07665179043898
  C   0.50618393404718     -0.50359468683267     -0.41361963120461
  C   0.42743603409745      0.95567905478270     -0.32234378617569
  N   1.48618100697500      1.73033709703593     -0.66966232439906
  C   2.71581545298944      1.59865814248359     -0.26721350941859
  C   3.22598574598233      0.61431828126137      0.65253435837834
  C   2.70934676553240     -0.62813584082600      0.79306853260649
  C   1.55980640929025     -1.19924689745315      0.16781431337585
  C   1.46407015899760     -2.61295959610425      0.21166844539266
  N   1.43502206206953     -3.77202758004916      0.27979577403626
  H   3.27103759616874     -1.31550884757624      1.41272377119064
  H   4.15295394761109      0.84473483758072      1.16077405195976
  N   3.61061799001043      2.52353444470769     -0.71846831957279
  H   4.58491503625927      2.28249954844719     -0.73463449197591
  H   3.29006800181828      3.12083721564782     -1.46183553969514
  C   -0.73412997136386      1.58437314384205      0.05685322349305
  C   -2.02428217573755      1.05229548358060      0.29227491723976
  N   -2.89342785364395      1.84890155896259      0.94828567657722
  H   -2.62560137164241      2.77102802352837      1.23455825702390
  H   -3.86006089014377      1.59066026800495      1.04585022487121
  H   -0.62595097189656      2.65024641880844      0.21917478091544
  H   -2.29291322297598     -1.73408809600553     -1.64537968015267
