27
Coordinates from ORCA-job ./opt_b97-3c_parallel
  N   -4.09206736010056     -2.54562267544664      1.20331867219135
  C   -3.20670534816160     -1.89360552836002      0.82714410120162
  C   -2.13525271187902     -1.08535798386645      0.36729469208358
  C   -2.51479604469709      0.10850908333774     -0.34663302446964
  C   -1.72992859622196      1.16229218223309     -0.68304670149237
  C   -2.30219179401959      2.21699695473681     -1.43786893888049
  N   -2.73736600246440      3.10468244508630     -2.04825492599981
  C   -0.37442181804973      1.38872190547967     -0.18727707384291
  C   0.51390542107115      0.45655013633507      0.17557997823377
  C   1.75974075336985      0.89914655608445      0.87119797593911
  N   2.97136179116219      0.65873795034546      0.49484537810067
  C   3.33115443913767     -0.24706170723203     -0.45296325291567
  N   4.51248191585940      0.06143803878313     -1.06177666984814
  H   4.98770227761029     -0.65303004994151     -1.58302250088251
  H   5.09732658683164      0.72896073517354     -0.59042862100863
  C   2.69288393976755     -1.44830623618600     -0.72387218004864
  C   1.41141144355667     -1.81475890239383     -0.30874424850470
  C   0.36587566121640     -1.00529888856024      0.08897591073434
  C   -0.86461859979081     -1.60363661166201      0.47075911403564
  H   -0.80675784833057     -2.62427975403624      0.83421815989958
  H   1.18176373728899     -2.87196560610732     -0.38279770906138
  H   3.26385187869334     -2.19371262732714     -1.26318655359700
  N   1.56793453503008      1.64868277661277      1.97701513367554
  H   0.64477654501823      1.77542738393063      2.34531028069023
  H   2.35622081135596      1.85912648353211      2.56460432522604
  H   -0.10300211016150      2.43045699391647     -0.06248928313455
  H   -3.55069220639041      0.14690751633802     -0.65788304562649
