23
Coordinates from ORCA-job ./opt_b97-3c_parallel
  N   -0.94527576661476     -3.50524097587388      1.11656110714559
  C   -0.37882774758329     -2.55421398682854      0.76287211775444
  C   0.33856414225263     -1.40020131069497      0.36963178884271
  C   -0.44643578749286     -0.29267428693225     -0.13378680949352
  N   -1.55601458922276     -0.56112214162331     -0.74921958007827
  C   -2.58159784827199      0.23257899162555     -1.09630528593530
  N   -3.06767060760851      1.28262220022763     -0.49923496861192
  C   -2.34998950872442      1.93573216195684      0.45598503745691
  C   -1.01259687869760      1.92966723383225      0.69644530479673
  C   0.00831372206625      1.07792559128487      0.12436562758735
  C   1.28542285355804      1.53980017175362      0.00076778194116
  C   2.49640171235678      0.82542795857706     -0.23114491732901
  C   2.67374829915787     -0.53736526131837     -0.03984465452833
  C   1.71861535936684     -1.47492285969263      0.33814469144695
  H   2.11767446668911     -2.44856965596236      0.59455815468613
  H   3.68678083640652     -0.91007824771975     -0.13050331394112
  N   3.58959539544985      1.59393839974226     -0.51471582212561
  H   3.44824752140978      2.51437958958113     -0.88909116413116
  H   4.43458128764034      1.13925095344388     -0.80988165829914
  H   1.40812409913766      2.60819099328307      0.14330093626868
  H   -0.65547721029121      2.63435547746481      1.43867993422410
  H   -2.94093401146932      2.63654568184597      1.03650867559864
  H   -3.14666629021435     -0.13832075687288     -1.94615874557619
