28
Coordinates from ORCA-job ./opt_b97-3c_parallel
  N   -5.09100417361698     -0.22536379245255     -1.13572205722916
  C   -3.99149306155224     -0.25677375528753     -0.76489602087444
  C   -2.64608810881109     -0.27745839193438     -0.31413660129103
  C   -2.18224629278023      0.85957367673983      0.40063065506120
  C   -0.88592303651924      1.17190829227435      0.66402128190685
  C   -0.61137899856220      2.19421955317966      1.60553170135852
  N   -0.36520843433605      3.00058640943757      2.40457224108636
  C   0.30400344191729      0.54885552593142      0.04767110519861
  C   0.45390803047631     -0.88467480163231      0.21902688609650
  C   1.67653555088302     -1.43289046830050      0.67990858307510
  C   2.96738692323830     -1.04467414145529      0.39330444509182
  C   3.33684837746552      0.00257539641264     -0.52393780463379
  C   2.57384118672073      1.02555511439043     -0.94636907126707
  C   1.23601015312528      1.36411587588347     -0.54148545163824
  C   0.87445539245570      2.71249532693676     -0.81541055435912
  N   0.62199138059490      3.80670204838885     -1.10723606955607
  H   3.04479520001562      1.74612085938797     -1.60105704894903
  H   4.36063997479371     -0.01939432705326     -0.87723451746686
  N   3.99998862367293     -1.73557120977706      0.93420381406084
  H   3.83506520573099     -2.57355555336463      1.46135348689872
  H   4.94090475858735     -1.57637088179919      0.62750522440442
  H   1.57911544709082     -2.34557771852065      1.25560446561552
  C   -0.62980827211021     -1.75677984820789     -0.01254405159813
  C   -0.32750191015003     -3.14394265674114      0.03352842121362
  N   -0.07105622723822     -4.27603988049839      0.07714798338330
  C   -1.94505881540990     -1.45765495252473     -0.42662422311088
  H   -2.49614851293730     -2.29805589314247     -0.82634110891142
  H   -2.93857635254730      1.51882228563014      0.80610775643090
