22
Coordinates from ORCA-job ./opt_b97-3c_parallel
  N   -1.71216918585872     -3.02245836256260      0.17722286448749
  C   -1.33385164298817     -1.92328383606138      0.22345928895438
  C   -0.97272578334727     -0.55961286539916      0.21276358302157
  C   -1.98175412943463      0.38949537784924     -0.22844992862218
  N   -2.06696389736249      1.67093962307729      0.07463263829654
  C   -1.13603404945295      2.32901735309773      0.78092949661416
  N   0.15118945384537      2.17662685751856      0.87003039074572
  C   0.84418002226903      1.12696501524583      0.35296287579582
  C   2.02809178193364      1.35039640272386     -0.31854738900511
  C   2.96814844281820      0.40715137114373     -0.76347345597615
  C   3.12743718817393     -0.89415731985722     -0.35770806247258
  C   2.35298059376628     -1.48892215491079      0.66177177333809
  N   1.14988505194027     -1.18063033707184      1.03630741149526
  C   0.33971528301618     -0.22995624923530      0.52209835076488
  H   2.80867645313870     -2.30094591434971      1.22283671449716
  H   3.99203826095387     -1.44254204814732     -0.70649755464723
  H   3.72484369044179      0.79439926606367     -1.43590395123842
  H   2.22364884892176      2.38951287850687     -0.55280492172156
  H   -1.52740496632963      3.19346852855684      1.31048781797230
  N   -2.99466095230975     -0.10262512811073     -0.96401198316720
  H   -3.78756316643894      0.49442976087204     -1.11825652171637
  H   -3.09382254989678     -1.08970119174989     -1.12233382861610
