22
Coordinates from ORCA-job ./opt_b97-3c_parallel
  N   -5.13995275754479     -0.49836597522412     -0.53472969886893
  C   -4.00374202692535     -0.33804947724491     -0.35254208746375
  C   -2.61547846804446     -0.15123494216818     -0.12935559810781
  C   -1.94192911773103     -1.17365536253276      0.57696926563131
  C   -0.60441484371356     -1.34001066997817      0.78950797130939
  C   0.48479727091060     -0.54277327929414      0.33316884000350
  N   1.61858190060731     -1.16849137019615      0.09985054779254
  C   2.81291179555327     -0.61904136497268     -0.19935441138585
  N   3.37643439596615      0.51083869744717      0.24215944026049
  C   2.60540174158325      1.46235894476012      0.76454242840037
  N   1.32501393838556      1.70695632241833      0.64619694850777
  C   0.34872093730818      0.90472758977318      0.17743125100952
  C   -0.76296747344493      1.51349559729951     -0.40270781255883
  C   -2.04718471038599      1.03201362047812     -0.59184361925234
  H   -2.72625457807850      1.70960035087734     -1.09305926540791
  H   -0.59910448499141      2.55048555649398     -0.66953771483999
  H   3.14989306895344      2.21425703661397      1.32902863776854
  N   3.59825776718954     -1.39648907200396     -0.96332327316135
  H   3.31550626843314     -2.33782350248993     -1.16378272178247
  H   4.54812338772450     -1.11339161743644     -1.12114811165847
  H   -0.29664190860606     -2.26611697148304      1.25866703021321
  H   -2.57546348464857     -1.96976131683718      0.94663896119129
