23
Coordinates from ORCA-job ./opt_b97-3c_parallel
  N   -0.95735670188999     -2.50863661696480     -0.53595037572560
  C   -1.06969621515479     -1.11348570041092     -0.44613495141242
  C   -2.33251872294063     -0.53958895905577     -0.82481827896256
  C   -2.86573413061634      0.61845461332608     -0.37103645917357
  N   -2.42731712918647      1.39680502888332      0.67042710743272
  C   -1.19516171036145      1.58526862294249      0.95112715055890
  C   -0.04028260792597      1.07612243988530      0.18703475761649
  C   0.99828946212135      1.88004191285606     -0.14835341198946
  N   2.10318564364838      1.54769307277666     -0.88205782313749
  C   2.63206129640626      0.36431872415002     -0.85629645383184
  N   2.41075061508884     -0.69013702066758     -0.01953667313695
  C   1.24763908374446     -0.96492979503269      0.48265231081868
  N   1.15567914082061     -1.81849196248751      1.52682922146082
  H   0.27964195373369     -2.28053623960989      1.69806492803396
  H   1.99633759103404     -2.28461853096229      1.82373563795610
  C   -0.02631263259242     -0.36203042949196      0.00549937300620
  H   3.48076565174119      0.21337117277159     -1.51701380657519
  H   0.92690878061077      2.93590327061430      0.09678118275402
  H   -0.98775095767463      2.14699814755455      1.86138018848224
  H   -3.82886941044957      0.92455777869789     -0.76184080111419
  H   -2.94612439057092     -1.12202827190210     -1.50466529392144
  H   -0.05783601010714     -2.83467807035335     -0.85572075712751
  H   -1.69553033007959     -2.93824873261943     -1.06895710511215
