29
Coordinates from ORCA-job ./opt_b97-3c_parallel
  N   4.26858117982395      0.71404330158672     -1.19440373929766
  C   3.23469934647142      0.44282757797792     -0.72837356978904
  C   1.97957019922164      0.15208289289950     -0.16888045453479
  C   1.87357417602847     -1.02510870514574      0.69796213982143
  N   0.84011633625399     -1.78360925215551      0.90146387640367
  C   -0.37735565787228     -1.60642926811877      0.30192498009909
  N   -1.00719659588318     -2.82554799619478      0.01797097265301
  H   -2.00373899502706     -2.82235570157495      0.17687496916278
  H   -0.56475464233757     -3.57448157100425      0.52765156214715
  C   -0.97830855885304     -0.42464834167885      0.00488491391339
  C   -2.28904612016232     -0.36662279901335     -0.69282187641247
  N   -3.35662548864926      0.22308863608594     -0.25249987500367
  C   -3.36441947702167      1.06454474431439      0.81550224921152
  C   -2.37435445228015      1.88248710149256      1.27336392140489
  C   -1.03400800473056      1.92010567018175      0.80568367764994
  C   -0.37476662220875      0.88441013784419      0.21451732197242
  C   0.96381437212191      1.08123632193393     -0.33797172142425
  N   1.19041330685260      2.24144993059671     -0.98425886906546
  H   0.40497422122949      2.79644637911236     -1.26859025378794
  H   2.07606980315407      2.42088730560402     -1.42839099702999
  H   -0.48192389875330      2.83825469097953      0.97644298704104
  H   -2.65984947786605      2.62258050323524      2.01077806119994
  H   -4.34706388684488      1.17599128406391      1.26221091675400
  N   -2.33215685424668     -0.94904512877982     -1.92026605836417
  H   -1.67938405388071     -1.69137463055518     -2.10743930585840
  H   -3.23836309033926     -1.02180462493465     -2.35243069244971
  N   3.01589878382098     -1.36733929852661      1.35597956175663
  H   3.04601903656531     -2.29427063512274      1.74243093027716
  H   3.89114009101287     -0.95509551090323      1.08820148724987
