25
Coordinates from ORCA-job ./opt_b97-3c_parallel
  N   -0.07196142455938     -3.70410267486622     -0.45038972304887
  C   0.20423855078170     -2.57699180181476     -0.36173093653236
  C   0.63940615805057     -1.23778768949517     -0.28924582580151
  C   2.05263074393658     -1.00929401079070     -0.40463150207818
  C   2.72229407658901      0.13955737555683     -0.00566210710509
  C   2.15573180878132      1.33143189525729      0.47313647181469
  N   0.94678778367942      1.82232445055510      0.21352697723214
  C   -0.07353356953302      1.16509483581460     -0.28716007438565
  N   -0.92853444222773      1.80626367609157     -1.07447865961903
  C   -2.20052041241475      1.52660902136676     -1.29665081025271
  N   -3.07957197434290      0.85286458156047     -0.58205071794457
  C   -2.65399551159104      0.02349799026400      0.39701925631569
  N   -1.50001700106143     -0.62529493937878      0.49989374813663
  C   -0.33107690064017     -0.26823002005803     -0.01444776764399
  N   -3.58107994309572     -0.27665326878084      1.33284407926218
  H   -3.42610865789939     -1.08633535087520      1.90581091517725
  H   -4.52698433450787      0.00387153801672      1.14768957449056
  H   -2.61185657177017      2.01171807658262     -2.17727176784506
  N   2.93544091119680      2.15841891185903      1.22483476889036
  H   3.91755466566231      1.97348021145918      1.30842479373666
  H   2.64818404227885      3.11964695259924      1.27809542790238
  H   3.80450863592412      0.08643256822818     -0.00192388858061
  N   2.79630109369253     -2.04770225068585     -0.87461842638803
  H   3.78745987093904     -2.03893994397080     -0.71932667465425
  H   2.37407418343174     -2.95848424419478     -0.94019379207890
