25
Coordinates from ORCA-job ./opt_b97-3c_parallel
  N   3.44063097598956     -0.23481494122042     -1.20434184520408
  C   2.32514798459507     -0.02383381571819     -0.44504968137941
  N   2.00694353676451     -1.10514776286225      0.33547384872630
  C   0.78499076494941     -1.44996752253443      0.58614736647880
  N   0.57037706799683     -2.50215070705571      1.41103805068102
  H   -0.34910308279889     -2.64343342126668      1.78548671271180
  H   1.35326032614756     -2.85877538674197      1.93314545885914
  C   -0.41760857819125     -0.79708592941510      0.02134839761602
  C   -1.41835428742369     -1.53008020493007     -0.52208749694371
  C   -2.65347966108284     -0.98525563799119     -1.00477566486743
  C   -3.24893637068035      0.14158328409831     -0.55243850827006
  N   -2.91104168594015      0.86523196693140      0.57442217719908
  C   -1.70104877142632      1.07236189821166      0.93328664877384
  C   -0.47524690468927      0.63825028163503      0.25306981992925
  C   0.59195514092698      1.48201831810898      0.06483668562466
  N   1.79341969893111      1.16565507806349     -0.49760897666404
  N   0.46873977324106      2.83885796531090      0.29454409376057
  H   1.34162061896223      3.31323374431729      0.44700215679547
  H   -0.28562111149610      3.14652153177724      0.88257054603828
  H   -1.58335472556810      1.58529933072390      1.89327115288192
  H   -4.18902033035539      0.45045454325671     -0.99476359304443
  H   -3.18774360753275     -1.56027627564395     -1.75269314204887
  H   -1.26763693902513     -2.59777558892547     -0.63740296988903
  H   4.04417185338310     -0.98255815128414     -0.91378758755884
  H   3.88168031602194      0.58931483135446     -1.57331446110597
