27
Coordinates from ORCA-job ./opt_b97-3c_parallel
  N   -3.29956598584228     -3.18724156122407      1.16416876010830
  C   -2.61135209770806     -2.33288457817215      0.78323952416387
  C   -1.74828349360811     -1.31208119222477      0.30260844428569
  C   -2.16268285071827     -0.01750949170239      0.43938137724717
  C   -1.53024285432087      1.15558736857202     -0.07412264366902
  C   -2.34901338475931      2.28481120259233     -0.30847868953451
  N   -2.96089385599817      3.25184529100396     -0.51754303177244
  C   -0.18500957825560      1.28470102328147     -0.38830314256831
  N   0.28153592207917      2.34479646163786     -1.07908698083643
  H   1.25939385354974      2.56985148989838     -1.01424701516947
  H   -0.34299445883016      3.09235675249102     -1.33650899994636
  C   0.81766859683667      0.27555841915117      0.00631927931067
  C   1.90584743435902      0.64129662163529      0.74574702745778
  N   2.95938045736049     -0.16267059444869      1.13671116673191
  C   3.42359484167695     -1.14148385951485      0.43840645530692
  C   2.97917573732000     -1.66102138855734     -0.82974452777403
  C   1.71080919034092     -1.63570221821472     -1.27148258607365
  C   0.59598643681821     -1.07309381814963     -0.50917934190513
  C   -0.55860332095927     -1.75916846217958     -0.37484643577491
  H   -0.59799895080112     -2.76096636000345     -0.78562839523163
  H   1.48311130007027     -2.10275260791755     -2.22426711745077
  H   3.72661921192782     -2.18001048831914     -1.41833854987724
  H   4.30987964408938     -1.61536833905470      0.85631993708719
  N   2.05925882465823      1.94318096034630      1.21705295356937
  H   1.20633076251290      2.40125177595394      1.50072117061299
  H   2.76085817167121      1.98425454107649      1.93962595547934
  H   -3.13224979347247      0.13964350704027      0.89198493212191
