25
Coordinates from ORCA-job ./opt_b97-3c_parallel
  N   -4.99017885084131     -0.35170488736966      0.58742384302656
  C   -3.83763365837145     -0.27070358870479      0.44807726372351
  C   -2.45468601745759     -0.09850130896893      0.23264511549445
  C   -1.60046926264679     -1.14575666814406      0.51166543658076
  C   -0.22492726855660     -1.27684394008602      0.29668882137915
  C   0.31709342747742     -2.57467745989377      0.48472083227762
  N   0.72891012677353     -3.64822509469449      0.64695943389749
  C   0.70663605298481     -0.26314642972390     -0.04725790321494
  N   1.91481511765791     -0.64838783336911     -0.40901830279342
  C   3.07671215896775     -0.02496749988116     -0.30800444498582
  N   3.45073121926083      0.95724447045566      0.54880850006751
  C   2.57198541847843      1.85101704739687      0.94850708127623
  C   1.22808378423595      2.04498046092504      0.61944999697190
  C   0.32807678061455      1.15417389315680      0.03719083612106
  N   -0.83383362565729      1.63979024767103     -0.40295628887327
  C   -2.03483623640165      1.11782067507820     -0.42835835487165
  N   -2.96815897758168      1.81091266623855     -1.10694512282552
  H   -3.93026037018522      1.52384281333209     -1.11548576513936
  H   -2.72718470423545      2.71918412374364     -1.45930794951025
  H   0.80642929607479      3.00503387194985      0.88737201192283
  H   2.99745969338913      2.61109324790710      1.59847468120948
  N   4.06619719435222     -0.49214003661995     -1.09099558620732
  H   5.00075537029819     -0.17669795195973     -0.90563606248710
  H   3.93062145283982     -1.36227045771697     -1.57306805557531
  H   -2.08019946708382     -2.03372178631960      0.90103259884432
