21
Coordinates from ORCA-job ./opt_b97-3c_parallel
  N   -3.98803804892819     -0.71786029608477      0.08421541650498
  C   -2.83125912966953     -0.78796276106017      0.01991574113200
  C   -1.42443195418018     -0.92017382734834     -0.08838367191174
  C   -0.93356991044001     -2.13328181128094     -0.66814022755003
  N   0.22500995756509     -2.69921613330795     -0.52942346613331
  C   1.28102949229058     -2.19946269362931      0.14424206678942
  C   1.63285731862708     -0.89160059825739      0.35383451561423
  C   2.91929045882791     -0.61514071436737      0.87403608371919
  N   3.97248915043158     -0.36197697419109      1.29385474519732
  C   0.79247093027926      0.25458689215443      0.02214921027475
  C   1.31775185232642      1.41154876379702     -0.48216973953406
  C   0.59533331322318      2.58342356850208     -0.85698406607438
  N   -0.51400693115573      3.06743983483360     -0.37753692588174
  C   -1.08955841961716      2.44815247458502      0.69570733699397
  N   -1.19830814514165      1.19718348025446      0.95646986313211
  C   -0.63952968965317      0.16053510354241      0.28019893478558
  H   -1.54358263948247      3.12852418758518      1.40951450633135
  H   1.06200659806713      3.18807671170761     -1.63106659607212
  H   2.36796082242163      1.40152010056134     -0.74607786439368
  H   1.98667409391281     -2.95521226817716      0.47008754525474
  H   -1.65249635160524     -2.69331952311622     -1.25868250237940
