25
Coordinates from ORCA-job ./opt_b97-3c_parallel
  N   -3.96158424128097     -0.79253616134605      0.22348462891394
  C   -2.80243089109447     -0.71094423086984      0.17439962481455
  C   -1.39634850402896     -0.72278123456707      0.05063582733965
  C   -0.79355484277191     -1.97542733946681     -0.32126624285895
  N   0.44080917172118     -2.38969005009254     -0.09807041683437
  C   1.49100814365128     -1.67154117435915      0.28462267676436
  N   2.52326439182321     -2.41346769103381      0.72624303272828
  H   3.41740249150478     -2.00143923262265      0.92676517179433
  H   2.45936902702035     -3.41048565504370      0.62900684527483
  C   1.68714961467017     -0.25766749500324      0.17892183483878
  C   3.02215326495730      0.18692475014410      0.22811232747826
  N   4.14131538944034      0.50315508995168      0.28925286051288
  C   0.68017548492783      0.70563090860002     -0.03353466227844
  C   0.98512358998851      1.92936701956710     -0.63977415809025
  C   0.20017308103731      3.07026429371151     -0.80738556938115
  N   -0.87843298812783      3.49083326641337     -0.16253840851250
  C   -1.40364918584063      2.72661294886673      0.80149976764068
  N   -1.39148284683770      1.43405295204093      0.95099274854923
  C   -0.72194884452514      0.46662338751220      0.31665453402010
  H   -1.97775552266694      3.26429176894224      1.55002731092406
  H   0.58046304878943      3.78203381254398     -1.53478028401994
  H   1.94795460889992      1.97031546327075     -1.13358233625241
  N   -1.59793970431046     -2.89777987467761     -0.87865843541850
  H   -2.58496404441005     -2.73689014137663     -0.97695120006930
  H   -1.24972065903645     -3.83579841870535     -0.96233160047798
