26
Coordinates from ORCA-job ./opt_b97-3c_parallel
  N   -1.06077078739262     -3.79668594848805     -1.23300553619813
  C   -1.29495643187577     -2.69942540210109     -0.92620285699549
  C   -1.55360188610265     -1.36449135106483     -0.53803442269325
  C   -2.88434080511133     -1.04351753035486     -0.31709812734211
  N   -3.46628598265596      0.02978552072205      0.20277969954501
  C   -2.88073237049590      1.21362997234794      0.33668333914726
  N   -3.64025969408876      2.14255986523103      0.95609925475870
  H   -4.54310087393404      1.86575495468939      1.29798498758357
  H   -3.27426997601378      3.03978087030970      1.21088358948588
  C   -1.63696918804390      1.65733482444235     -0.19452846950286
  C   -0.53703624191175      0.91816417818263     -0.53124695419798
  N   0.45584503034467      1.59073513118550     -1.18931028652061
  C   1.73037461504820      1.51656604880897     -1.00419411191614
  C   2.48589658528244      0.72304468085084     -0.10108388456476
  C   3.82640331844722      1.08308075492465      0.13095845010439
  N   4.93838865513488      1.33807848643220      0.36391451413278
  C   2.04352330314064     -0.52199903321755      0.38331935774591
  N   2.90127313391522     -1.28668647718818      1.09019624824001
  H   3.86040467865857     -1.00778682409712      1.20679546145751
  H   2.66409737654343     -2.23243158755529      1.32412710753648
  C   0.77069283630939     -1.09501576426001      0.11699403601972
  C   -0.40137534722672     -0.51775510115149     -0.28964922503283
  H   0.70993890952045     -2.15577020204889      0.32723586342883
  H   2.31832914527216      2.17442334081721     -1.63973973729066
  H   -1.53490610695917      2.72179927057391     -0.36849182333214
  H   -3.58439262991980     -1.84448071603978     -0.53333541789889
