27
Coordinates from ORCA-job ./opt_b97-3c_parallel
  N   4.87882991615274      0.69002540807744     -0.72100681074772
  C   3.76429660334550      0.50713127281512     -0.43791786883721
  C   2.42607887096925      0.19770960814045     -0.11753302129284
  C   1.62778424446845      1.23678710724107      0.37683354847879
  C   0.27172060705648      1.30690070203501      0.60360112688603
  C   -0.22408183589618      2.55343415411428      1.05466198223191
  N   -0.65626750680524      3.57188583008573      1.41416061448495
  C   -0.72815674558020      0.29640630889879      0.28367219273085
  C   -1.94924138095418      0.71759818507003     -0.16896986691622
  C   -3.13438208962183     -0.01270498890360     -0.46984636756195
  N   -4.06825239048697      0.65705090672537     -1.20357317528795
  H   -3.98948780465985      1.65321643408576     -1.30061941317398
  H   -5.00382191830555      0.29539785907459     -1.24562036660840
  C   -3.42380893930869     -1.29003638914930     -0.01519730019205
  C   -2.59568473252283     -2.01576081559085      0.84486640314787
  N   -1.31271772721669     -1.94153902862147      1.05242118641672
  C   -0.40164790953396     -1.11408525316134      0.47242390151653
  C   0.80325940651981     -1.70240278101959      0.15703988884454
  C   2.04024926743053     -1.16179613630256     -0.24135279940795
  N   2.96149480200087     -2.03920680170877     -0.69524811152960
  H   3.91051612406695     -1.75296797765536     -0.86294963448577
  H   2.76094301226255     -3.02079262346888     -0.71472354818209
  H   0.78312984571812     -2.78049452508414      0.26737920741656
  H   -3.09142681541100     -2.77942774853623      1.44114516928752
  H   -4.42347233249211     -1.67489262605616     -0.17413488190534
  H   -2.01970492294887      1.78094505059674     -0.36365913398574
  H   2.16473078935676      2.15703784859608      0.56615007347712
