24
Coordinates from ORCA-job ./opt_b97-3c_parallel
  N   -5.03353881047441     -1.03215514767537     -0.45122031581408
  C   -3.88899467947209     -0.87780827952148     -0.32882903718202
  C   -2.48925475296277     -0.68904751500712     -0.18370572875636
  C   -2.07836006241442      0.51784005409955      0.41901825792293
  C   -0.81412533333269      1.04735194153436      0.51409514263526
  C   -0.66212519544767      2.29955211614469      1.15982966124393
  N   -0.53553243940844      3.30999941938201      1.71799154906739
  C   0.38288769685570      0.51754276595675     -0.11880824136809
  N   1.20738264641775      1.35639371251585     -0.65852735946872
  C   2.45682281564949      1.13819574306994     -1.11966684687840
  C   3.36265264245564      0.23102285577035     -0.67787479166965
  C   3.02278875331387     -0.81018748528003      0.24979708080158
  N   1.83630878782397     -1.33843132012941      0.41365566877151
  C   0.64826409222288     -0.92720128232380     -0.05780454759067
  C   -0.29439378391333     -1.88214260738981     -0.42453272954725
  C   -1.66525070299624     -1.74492883228678     -0.56751716760278
  H   -2.18158382683855     -2.61836579808415     -0.94423913765573
  H   0.10788282287424     -2.87645439003165     -0.57262788134688
  N   4.03559919836751     -1.37684691077997      0.95075074585841
  H   3.78910934086089     -2.06127324268729      1.64497322176465
  H   4.89030936688895     -0.87035855382763      1.08829183331464
  H   4.39116309427583      0.31602976899318     -1.00239985078110
  H   2.77180945143942      1.85854762705669     -1.86643188539607
  H   -2.87154733578018      1.13027242629912      0.82620621817693
