29
Coordinates from ORCA-job ./opt_b97-3c_parallel
  N   -5.83841916032544     -0.33349101158369      0.03193471040308
  C   -4.67895545990807     -0.43117276012396     -0.00707444652017
  C   -3.27062707438354     -0.47530855526172     -0.02930241405919
  C   -2.65452844475319     -1.67054064305535     -0.41155101565845
  C   -1.33535463351080     -2.03548380580147     -0.43959292343294
  C   -0.13261756092957     -1.34232723339497     -0.15047318860803
  C   0.99092904587560     -2.16632467767371     -0.00135819752722
  C   2.31226196573503     -1.88773943111082      0.27824809295356
  C   3.00951895301801     -0.69033076301008      0.29658233199186
  C   4.38354923455137     -0.73934936113302      0.61081631241819
  N   5.52152447132048     -0.73028684425334      0.85625948932033
  C   2.48208919996481      0.57465706324842     -0.11938054684270
  N   3.38064936192234      1.55650345373653     -0.31374259873153
  H   3.09397115719875      2.48018667198712     -0.58701721291372
  H   4.36256991939505      1.38259121217359     -0.19006838812049
  C   1.11540430551849      0.86367464285348     -0.33202719528888
  C   0.88405443841124      2.17870525585592     -0.78723857735986
  N   0.76649568636668      3.27437013503017     -1.16750874380357
  C   -0.08810899282064      0.10323095874492     -0.03149182994870
  C   -1.18305535582639      0.89166099563686      0.30206626402517
  C   -2.57693426447466      0.69976404046295      0.34814908722337
  N   -3.30689742066237      1.75793343930732      0.76357919508842
  H   -2.87454400793265      2.65397030005375      0.89029501173255
  H   -4.31111851198713      1.73548900366526      0.71995544150929
  H   -0.91481463370603      1.91234170913477      0.54027570629369
  H   2.91786045401437     -2.75805354756967      0.49805128619601
  H   0.76710740168946     -3.22443697825891     -0.02913329000842
  H   -1.17747261606956     -3.06949626156013     -0.71759933627588
  H   -3.34530962627400     -2.45363929465563     -0.69724797485247
