24
Coordinates from ORCA-job ./opt_b97-3c_parallel
  N   -0.53479466884356     -3.59115701899464      0.23075462439007
  C   -0.52662477984077     -2.42881401182071      0.18007957129702
  C   -0.63698330833521     -1.02614266243577      0.06169622896522
  C   -1.93034458066756     -0.51924792296278     -0.33209792087487
  C   -2.36910434413495      0.78225990208048     -0.17399792362743
  C   -1.63050033359997      1.86333604015151      0.34624379088852
  N   -0.31608801404070      2.04987005239254      0.33274484153363
  C   0.62032760754990      1.14924891136589      0.06650527733047
  C   1.79333028547983      1.56544162171657     -0.57906663122794
  C   2.96916639640778      0.85782388307592     -0.81530896848941
  N   3.48218309948817     -0.20867627030393     -0.21646264810815
  C   2.80081243696334     -0.80870142213161      0.76886855240438
  N   1.52013709173497     -0.89288727825615      0.98578498169594
  C   0.49868577420789     -0.28210372992811      0.36385641196041
  H   3.41611748581563     -1.36098016912987      1.47324610324558
  H   3.62764249104684      1.29674270289967     -1.56058115683291
  H   1.72509325447208      2.54699792561451     -1.03156354691664
  N   -2.32630041812787      2.90976946124600      0.85931591268842
  H   -3.32732567418795      2.93140501938651      0.82900369049304
  H   -1.83421976402925      3.77212716289837      1.00664386088508
  H   -3.41198526588382      0.97258394801127     -0.39715838451696
  N   -2.79788012950629     -1.43228229075243     -0.83835724560590
  H   -2.57991158355213     -2.41195512989302     -0.77071485733671
  H   -3.77199278391562     -1.19999772522994     -0.89662232084035
