25
Coordinates from ORCA-job ./opt_b97-3c_parallel
  N   4.91214123693089     -0.20704184388537     -0.99073307577543
  C   3.79661210133212     -0.00993115532485     -0.71717698705474
  C   2.44852506370783      0.16157689520578     -0.35542501664209
  C   1.86828973645802      1.41392360545886     -0.46360122470120
  C   0.59489096461563      1.83974394102582     -0.12164328905280
  C   -0.55682557390747      1.10973666269191      0.18571513809384
  C   -1.71886265322571      1.83767784168122      0.51772971767205
  C   -3.05174871191763      1.48035331632456      0.49378178497939
  N   -3.69018207826772      0.39131805001310      0.08181068407625
  C   -3.05739137303147     -0.72967502698534     -0.27471555716934
  C   -1.70042959534152     -1.09443226993809     -0.13773152902471
  C   -0.57010580839993     -0.35250643715181      0.16650447831863
  N   0.50521136579173     -1.09660859392907      0.50871767555100
  C   1.78629013532783     -0.92863762349287      0.33081077866977
  N   2.58124657765855     -1.88637279391943      0.85580899413475
  H   3.58060067460749     -1.84591198210736      0.77676281000530
  H   2.14966191582279     -2.68900244582768      1.27446108862137
  H   -1.49115953909654     -2.15253332465744     -0.23968214673610
  N   -3.89102116188473     -1.67143807536155     -0.78604548294693
  H   -3.58027206833792     -2.61040446492057     -0.94749518882505
  H   -4.87725881425447     -1.50206718560800     -0.70218174963882
  H   -3.73251658450098      2.26508242908795      0.81370543936391
  H   -1.54647332980613      2.87613482708462      0.77528443530908
  H   0.44448235530437      2.90963220740677     -0.18929632806242
  H   2.52458011622936      2.18939325734008     -0.83938730426166
