29
Coordinates from ORCA-job ./opt_b97-3c_parallel
  N   -3.77749948797110     -0.12310255468629     -2.17437374931374
  C   -2.99233736366468      0.36884065810464     -1.47196797151509
  C   -2.04524707685928      0.94292220361705     -0.58944577714746
  C   -2.15963450296149      2.27488799548690     -0.31161649291352
  C   -1.30795314368306      3.06588914441884      0.48376593296164
  C   -0.02058694920290      2.77875461303371      0.82005817656333
  C   0.75928804974898      1.64209754479303      0.46419602165618
  C   2.14964988830324      1.79340606729933      0.72269701078517
  N   3.26462854227671      1.94832082471407      1.00734200450418
  C   0.33240635401750      0.40349187951853     -0.00852804596418
  C   -1.07257899409934      0.00006587628470     -0.00261793343409
  C   -1.52090557264748     -1.21751706744861      0.37176597279464
  C   -0.77650616757607     -2.35174234034512      0.84524251827283
  C   0.53466196253696     -2.62414406373191      0.55394256035957
  C   1.40722351717437     -1.87703663044572     -0.27469462778497
  C   1.28820924925770     -0.50871385285984     -0.58497490379567
  C   2.24883310529828      0.02047682895022     -1.46658450268453
  N   3.04955645323101      0.37304719727490     -2.23564036277749
  N   2.49689010872505     -2.53754590596465     -0.72838195833557
  H   3.17086227173100     -2.07262507353054     -1.31199267310026
  H   2.54962110761282     -3.53567228574477     -0.66490498626901
  H   0.93254291910417     -3.56369156314176      0.92000404119942
  N   -1.49177905698217     -3.22791095768961      1.61048551117840
  H   -1.13693608193284     -4.15505086731845      1.75973351703155
  H   -2.49046239867622     -3.14060331815338      1.64365405029891
  H   -2.59308235218347     -1.36599863384067      0.32161742933733
  H   0.52283095695419      3.54518358022351      1.35662013167413
  H   -1.68271068081704      4.04047343013336      0.76633029816750
  H   -3.01235790441780      2.77831543614716     -0.75006676125083
