28
Coordinates from ORCA-job ./opt_b97-3c_parallel
  N   -5.45636187283852     -1.31296425414443      0.26846389270065
  C   -4.31563510325383     -1.09339365649833      0.33282184799376
  C   -2.93989130327203     -0.78271856530264      0.36237111515277
  C   -2.13092498821004     -1.55968770285434      1.20810424236997
  N   -0.83614770198781     -1.70718548204688      1.21686414161771
  C   0.06006823620704     -1.03173944728269      0.49369580436279
  N   1.06536425691234     -1.69266811484696     -0.01368217926808
  C   2.23685184365355     -1.22767347621618     -0.45500598008739
  C   2.89814534193924     -0.06647919900770      0.01299403948044
  C   4.27626067019362      0.05915229496999     -0.21405385230978
  N   5.42214369310435      0.15862099317221     -0.40261953274672
  C   2.21930939249216      0.98047174271668      0.70135982897734
  N   0.91894666695631      1.23665561103629      0.64546826130631
  C   -0.06645261072684      0.42584947593215      0.31227067974487
  C   -1.23433887790376      0.96754617152250     -0.25852641376283
  C   -1.11493927763908      2.27853230521421     -0.77153937813061
  N   -1.09670228584495      3.34640370028686     -1.23110641546199
  C   -2.52176350083737      0.36230495366350     -0.37129113896449
  N   -3.43510017815730      0.98380479771732     -1.13731936857737
  H   -4.39495436394804      0.68432028654015     -1.12397618993008
  H   -3.23420188111635      1.88173588832621     -1.54287294790766
  N   2.94495273980588      1.87147148280526      1.40456277116719
  H   3.94887607195614      1.84868086812396      1.38078932383140
  H   2.49724953665040      2.73214448852764      1.66428866449924
  N   2.85406602385284     -2.02376624919386     -1.34851303988917
  H   3.79875744278417     -1.83985062370581     -1.63642548147097
  H   2.48822333239412     -2.94936823077810     -1.47996101638615
  H   -2.66226476596418     -2.17997439817101      1.92311118548723
