31
Coordinates from ORCA-job ./opt_b97-3c_parallel
  N   -3.64507894015683     -2.83319997072422      1.35183271335023
  C   -2.94012660972877     -2.03430137952273      0.88098650299447
  C   -2.13570349752060     -1.03168297138846      0.30341349482647
  C   -2.76977777394822      0.16966845610832     -0.03813522118618
  N   -2.27859816365098      1.12796573636579     -0.86655707028535
  C   -1.02331099804637      1.44568017530867     -0.94467855109984
  N   -0.62491207392089      2.24375560370947     -1.95933165955716
  H   -1.33327223956706      2.66474426680577     -2.53706725035320
  H   0.24782707242361      2.73181772302882     -1.86426283446585
  C   0.04268860333157      0.97347166609950     -0.03106611352825
  C   0.72994037111153      1.83964712882553      0.75846620206118
  N   0.37898450733816      3.19277955818868      0.79960065164517
  H   -0.61201998958914      3.37566360149589      0.77754636305855
  H   0.82283985145855      3.70758822036538      1.54138038157106
  C   1.90050512278430      1.47415324265360      1.51370760907672
  C   2.78326897363153      0.50274426344672      1.19853388005493
  C   2.73974554567912     -0.45765971257566      0.13252740284951
  C   3.96149190589844     -1.04745347216871     -0.25354905357347
  N   4.93669288808677     -1.56856983270460     -0.61884023838804
  C   1.58747550678583     -0.94343385153357     -0.47735506500502
  N   1.65376067781577     -1.94108235615456     -1.38305331775265
  H   2.54268575702943     -2.28773119236435     -1.70435269269659
  H   0.83769266153160     -2.17787510763054     -1.91445587395560
  C   0.25402148798812     -0.47177619807793     -0.10873600536157
  C   -0.76867230212011     -1.35255350799714      0.04055369249449
  H   -0.53634494745827     -2.41031368099647      0.01858019704545
  H   3.68281592642698      0.45823060065599      1.80064753194131
  H   2.15689440272005      2.11834280976500      2.34693190028282
  N   -4.04510958619027      0.41738416634123      0.36908823589505
  H   -4.55321127957586      1.09052324368653     -0.17663473067962
  H   -4.58316956996819     -0.34062282051184      0.75467191234054
