28
Coordinates from ORCA-job ./opt_b97-3c_parallel
  N   -0.28729290205603     -3.35010136231132      0.87483233445468
  C   0.11069058760753     -2.29287153036517      0.59561911143491
  C   0.68758798022001     -1.02865197037229      0.34365149165844
  C   2.13396394685740     -0.97383849577532      0.45756059817217
  C   2.93007448922062      0.02459225591340     -0.05671668919068
  C   2.48982866709972      1.20327163758597     -0.70652987878228
  N   1.35436722759055      1.84256787737300     -0.52766266997668
  C   0.29697835377537      1.42434162723201      0.16341280308898
  N   -0.34521264366530      2.30021883977773      0.89626623477687
  C   -1.60976133327044      2.28215013520388      1.30532158344535
  C   -2.68516933266305      1.61197489709405      0.78574162076070
  C   -2.64167117161451      0.55702071385357     -0.15323019571125
  N   -3.81223456874314      0.19346225360135     -0.72819986891636
  H   -4.66704370192191      0.61931442341771     -0.42468186334483
  H   -3.88592679746054     -0.67006156459950     -1.23830520068064
  C   -1.48123594086196     -0.19206362457086     -0.46135838046267
  C   -1.66333235523118     -1.27646520608955     -1.34240365274453
  N   -1.89396806421283     -2.12591734615489     -2.10468770084625
  C   -0.16109147056491      0.02954462203598      0.04711839780207
  H   -3.66434399391919      1.91098053814423      1.13871159073444
  H   -1.81456896491099      2.97382725478861      2.11704356402134
  N   3.34887013851921      1.79378717936834     -1.58364610757464
  H   4.29517802204903      1.47120015606345     -1.65233313851153
  H   3.17286525045494      2.75430721816198     -1.81757802926825
  H   3.99956114206315     -0.14919791081326     -0.04087375024585
  N   2.72768901884410     -2.03519260385193      1.07166006575172
  H   2.19373616729176     -2.87515042022719      1.21775266827991
  H   3.71391187930380     -2.16922447838299      0.94328716717440
