22
Coordinates from ORCA-job ./opt_b97-3c_parallel
  N   -2.39678389427101     -2.16279150982181     -0.94393563999885
  C   -1.76555090929523     -1.14400703387744     -0.29735147200885
  N   -0.50826264700948     -1.44683688487395      0.06391796079358
  C   0.43925178066951     -0.60478174520580      0.37834946095156
  N   1.46385265728600     -1.03932265749016      1.12413203174862
  C   2.73744699623957     -0.80832177453333      0.95407463101000
  N   3.39646354036397     -0.22359868059825     -0.05226282939421
  C   2.80048593639127      0.68705459986402     -0.81756644236753
  C   1.54317824528646      1.27281168239089     -0.73357189624841
  C   0.42289246015879      0.81466244070415     -0.02401396454429
  N   -0.60711664142489      1.61102808272614      0.20396003860312
  C   -1.87773338290429      1.23160467302314      0.37580369687980
  N   -2.66544805437530      2.19931491567908      0.92085411055254
  H   -3.66265632388161      2.09389330530566      0.91085034638209
  H   -2.30326334549009      3.13589030273816      0.90661020959024
  C   -2.47108393597323      0.02332779638276     -0.01178084196977
  H   -3.55016071265313     -0.00220690728104     -0.10290663195555
  H   1.38374625602848      2.17032804495141     -1.31869322065919
  H   3.45447010386400      1.10502637357161     -1.57868790697890
  H   3.37801031197827     -1.21050578541170      1.73416115022415
  H   -1.98648277451102     -3.07472859088710     -0.84859589754485
  H   -3.39074289647719     -2.12448478585605     -1.07399621716556
