26
Coordinates from ORCA-job ./opt_b97-3c_parallel
  N   0.62925104850561     -4.93419132407941     -1.21791235384142
  C   0.40705516256718     -3.85510633908775     -0.85584249320054
  C   0.16116162517137     -2.52788760927643     -0.40780873526373
  C   1.11889024428676     -1.98558032677219      0.51101785693405
  C   1.32520937357943     -0.67345852485528      0.77755100141115
  C   2.21161555263467     -0.29797121663424      1.81666925782687
  N   2.91307745437467      0.03652696042757      2.67871258753257
  C   0.68037282722085      0.42865877946554      0.03752442418082
  C   1.41456172912766      1.41613047588168     -0.55651238692600
  C   2.82482361720557      1.29742876734501     -0.64211411756430
  N   3.97564919726052      1.22420083908018     -0.76892259968052
  C   0.82772048551063      2.55519430874389     -1.24284182924435
  N   -0.24255498644479      3.19113103674511     -0.92024529692632
  C   -1.05091619013110      2.88499266591085      0.12629458548982
  C   -1.38960769764942      1.64344312357049      0.57164302450836
  C   -2.33428110628077      1.50722301331939      1.61593464645836
  N   -3.07835541923465      1.38005643822213      2.49797927754637
  C   -0.77216003712375      0.41854151191327      0.04020116110415
  C   -1.51603629176646     -0.66433876553732     -0.35968737633926
  C   -2.92441916101877     -0.49988748852271     -0.48385527792762
  N   -4.06866912535843     -0.38929756296297     -0.63425766693642
  C   -1.02087680498804     -1.94203324242894     -0.76723913599538
  H   -1.70630858030721     -2.54162451338793     -1.34927503419301
  H   -1.53734986080272      3.74118145763806      0.57730779158601
  H   1.38373755507870      2.94197244040220     -2.09125299598239
  H   1.73581138238262     -2.70139826181964      1.03731833004219
