26
Coordinates from ORCA-job ./opt_b97-3c_parallel
  N   -4.16795095049651     -0.72976559889326      1.24379337204679
  C   -3.15340345282771     -0.40425411570780      0.77028008691479
  C   -1.91927753850978     -0.04631107491557      0.20168173128542
  C   -0.85355218643009     -0.91627089522071      0.37767573921850
  N   -1.01942935012842     -2.07903510970521      1.03823876026654
  H   -0.21267210139272     -2.60130621324873      1.32357083765824
  H   -1.90396499645937     -2.31517921056873      1.45626306879230
  C   0.47781195540425     -0.65615022724055     -0.16718410424465
  C   1.20652313636219     -1.66801511571073     -0.71362375191736
  N   2.43281393167421     -1.59586471734762     -1.30293085680598
  C   3.33251720685659     -0.72473233286167     -0.95729577913156
  N   3.39343297111777      0.12608359694833      0.09689111998732
  C   2.35274992462711      0.73929149425245      0.57888216006567
  N   2.51190094827310      1.49379647614091      1.68421784138569
  H   3.40275300348836      1.49627565579818      2.15053332855595
  H   1.71710976677855      1.89825705832847      2.14078353448198
  C   0.99590598832020      0.70274876734271     -0.00753047428463
  C   0.31299225154297      1.83825048874105     -0.27608608383740
  N   -0.91508760557698      1.97871406964774     -0.83935351320730
  C   -1.88960346435475      1.13588188654513     -0.67151153529856
  N   -3.04347283082464      1.39278133835152     -1.34283727028752
  H   -3.89067150627014      0.91240231374119     -1.10019034727842
  H   -3.13041493725460      2.30777075196407     -1.74884367020462
  H   0.82339006233985      2.78321524478228     -0.11265076157247
  H   4.24904450487753     -0.75075065597739     -1.54041988368534
  H   0.73903719113431     -2.64358764233336     -0.80420020869906
