30
Coordinates from ORCA-job ./opt_b97-3c_parallel
  N   -5.01599850716252     -1.02711596271427     -0.53654590305571
  C   -4.00016867996277     -0.59198821305361     -0.16903436205772
  C   -2.73791166831865     -0.10625516186432      0.22673412103423
  C   -2.67896726550868      0.67336695170425      1.44340169744643
  N   -1.84966240540356      1.59683480300321      1.80036524810546
  C   -0.82215847465272      2.00292803743221      0.98984168486964
  C   -0.06822315244844      1.24542289518013      0.16642702905518
  C   0.98037666631085      1.86180886508914     -0.67245477386538
  N   2.22456759420990      1.49703159879635     -0.71943582024277
  C   2.73996559227373      0.45787752242125     -0.01851499072679
  N   4.02766419302951      0.66051330498869      0.35239267652985
  H   4.58931083896768     -0.10765867974828      0.67611514293783
  H   4.50071670263998      1.43650336148223     -0.07277309518883
  C   2.11727509881149     -0.76678090376770      0.26293997024018
  C   2.93328366829471     -1.77932679950647      0.79659828776505
  N   3.63432264536888     -2.60807455534547      1.22296594557355
  C   0.73937170335316     -1.10218629532465     -0.00947337481567
  N   0.46474878221345     -2.45669092521727     -0.20778320655676
  H   1.23288196679408     -3.07225110545130      0.00897642423184
  H   -0.38297938955752     -2.77884920705656      0.23265552394277
  C   -0.27047707611702     -0.18131807810582     -0.07755198778563
  C   -1.62738513759788     -0.52932017644438     -0.50010929221234
  N   -1.76830599069828     -1.27234928855429     -1.61479949706361
  H   -0.96815888896517     -1.77884019467363     -1.95348426617487
  H   -2.67785766765209     -1.61968273876030     -1.87451791893396
  N   0.59531590638153      2.89374188017603     -1.44795944919638
  H   -0.37861262414472      3.10803254339407     -1.54636618455472
  H   1.24759231657617      3.28021263154893     -2.10903165765703
  H   -0.57967780924852      3.05623878133505      1.09247044887156
  H   -3.49924107537427      0.49434327494253      2.13512499058023
