29
Coordinates from ORCA-job ./opt_b97-3c_parallel
  N   -4.44699429461258     -1.32904883507030     -2.29145890326473
  C   -3.70081118978258     -0.78994904254881     -1.58251331668209
  C   -2.77848629879977     -0.15320780649355     -0.71465698185299
  C   -3.15053970779853      1.04083337858534     -0.13692079531518
  C   -2.46361837168248      1.80992617993760      0.81462790284552
  C   -1.12021053155455      1.78881068747027      1.10341556136813
  N   -0.59973520934449      2.57344694790137      2.07869131050831
  H   -1.19806101232879      3.00649237937175      2.75969256420374
  H   0.36967346596393      2.48237522309709      2.31887316393335
  C   -0.14413289582992      1.01304059940145      0.31608514775190
  C   0.95673785157146      1.61079670793648     -0.18206911650608
  C   2.05641633431679      0.96447082000964     -0.84980429680333
  C   2.85338635412583      1.78986357992974     -1.68557908675728
  N   3.49009524993746      2.49109338489160     -2.35745263027411
  C   2.46588026616257     -0.32310608436751     -0.64386505965730
  C   1.89163271750895     -1.30241196006528      0.21796515787175
  C   2.72628218981292     -2.36154134074531      0.64298600614529
  N   3.34988631182526     -3.25947012077642      1.03977898781040
  C   0.56947486777006     -1.34883637189633      0.64725268105101
  N   0.14599639330022     -2.29300716748029      1.50287959249591
  H   0.77508611794182     -2.98636761654581      1.87434027602226
  H   -0.82627332332547     -2.35505725315114      1.73932212695380
  C   -0.45627096034644     -0.41038997686588      0.15798506675121
  C   -1.60265613723265     -0.89536378747039     -0.37130272111148
  H   -1.65270049986914     -1.96193361240442     -0.55793492873369
  H   3.39040229591451     -0.61904328241999     -1.12101180714711
  H   1.03229855402769      2.68753296523926     -0.09176821567251
  H   -3.05922233192897      2.54833597438062      1.33926386340626
  H   -4.14376531394827      1.39291066344978     -0.38563368303792
