28
Coordinates from ORCA-job ./opt_b97-3c_parallel
  N   3.90750060008122      0.02636226279114      1.19325875860891
  C   2.83166393909012      0.21674551966080      0.78410459559450
  C   1.55011094549180      0.52596983217899      0.29722436006820
  C   1.27188926446873      1.88260220356340      0.09966623138714
  N   2.27300389741409      2.78585928770898      0.28819998411709
  H   2.03121913115293      3.74805330636008      0.43538707023931
  H   3.13636860397709      2.47930712646857      0.70411247229483
  C   0.05638905400445      2.42320505571574     -0.37958225902381
  C   -1.18889367683714      1.85530617299440     -0.35598525596578
  N   -2.24166063839704      2.58461842319981     -0.82513866523906
  H   -2.12458669889100      3.57452168959826     -0.93980891338920
  H   -3.17944512645368      2.27993836910955     -0.62954610798990
  C   -1.51941667078700      0.52312920506787      0.13156891570956
  C   -2.88662643797533      0.34258290494062      0.44071627238927
  N   -4.02628207509430      0.25779890496081      0.66425954394417
  C   -0.70019341269514     -0.59805646960849      0.21285965969325
  C   -1.28630245393478     -1.79354819546364      0.75999891380257
  C   -1.05276838008524     -3.10631322250661      0.48182982879814
  C   -0.10347102867531     -3.67100148667270     -0.38652454808385
  C   0.98001523797965     -3.00971504797585     -0.89466523896198
  C   1.37649160627060     -1.68706753501699     -0.65448181980520
  C   0.72030898266250     -0.60472553342855     -0.09143617291981
  H   2.38872600865743     -1.46735616085782     -0.96974668467375
  H   1.67364852249933     -3.59323681902363     -1.48823028955484
  H   -0.19825259644771     -4.72733505505589     -0.60142622004423
  H   -1.71633895387756     -3.80464760613838      0.97871481837478
  H   -2.09102778816228     -1.60792454452964      1.46025977737611
  H   0.11608120647004      3.43795467927705     -0.75474815895302
