29
Coordinates from ORCA-job ./opt_b97-3c_parallel
  N   -2.47327518656303     -3.61407599828917      1.77278562804270
  C   -2.07771760540978     -2.64610694536747      1.26620292368704
  C   -1.56269029640175     -1.48527996923522      0.63471784722598
  C   -2.38331281896866     -0.39862859265624      0.52269126557317
  C   -2.12544544626491      0.84537788619472     -0.12048658159301
  C   -3.24702964349606      1.62236068323205     -0.48517892832343
  N   -4.12064375541288      2.31778404186783     -0.81393991858166
  C   -0.87151314279167      1.42486403724833     -0.33891963967556
  C   0.38782004952377      0.80637078539539      0.06552387412482
  C   1.33765298573076      1.56141771137980      0.68598349862173
  N   2.56427203419731      1.21185085641628      1.13000459225698
  C   3.31352232361757      0.30716912886152      0.55292600780096
  N   4.57123022160009      0.15830418722115      1.07487839363884
  H   4.71594621264536      0.61519155373519      1.96001399876018
  H   5.02731278227642     -0.72975119271077      0.96430750667146
  C   3.04729990478367     -0.45365758839960     -0.63901740674323
  C   1.82203292592567     -0.89699469388086     -1.02905791094122
  N   1.66727807058393     -1.71955529188413     -2.10757226904213
  H   0.74513718240774     -1.80336137382401     -2.49634594878128
  H   2.42248676917424     -1.80153104869272     -2.76660062143170
  C   0.58876523554674     -0.60978943070732     -0.26977713969052
  C   -0.25911569332177     -1.61190190897433      0.03136959163682
  H   0.05154861029176     -2.62353561530187     -0.19945807309420
  H   3.91206709598884     -0.76494426925762     -1.21477023225624
  H   1.05737467010481      2.57415473453587      0.96345954496786
  N   -0.78582158450873      2.64665484284557     -0.89314300085068
  H   -1.60811569142645      3.15010315524148     -1.18369188406589
  H   0.11288331507945      3.03478421006240     -1.10762778692157
  H   -3.39010837140973     -0.51479009656147      0.90199055328331
