34
Coordinates from ORCA-job ./opt_b97-3c_parallel
  N   -4.85064670243098     -1.74798054269679      0.55294274485074
  C   -3.89893482264555     -1.18289748842326      0.19081919800109
  C   -2.70280633185111     -0.54264490883743     -0.19617418094683
  C   -1.55148443741932     -0.84993966528632      0.51421302421722
  N   -1.58151682120881     -1.62643833256556      1.62323339448893
  H   -0.72585206111287     -2.09122085328559      1.87558084569425
  H   -2.43394093874221     -2.11083275370817      1.85822434724496
  C   -0.24758521878741     -0.33290128376914      0.08396407544639
  C   0.79952051971243     -1.16507398644836     -0.15869303216958
  N   0.62164762652317     -2.55349148622539     -0.14397597064195
  H   -0.22365827709333     -2.86388661588773     -0.59840513893022
  H   1.41575526695772     -3.07408499275121     -0.48088241014590
  C   2.15516643664623     -0.69583846062644     -0.38568678641151
  C   2.98496094848429     -1.50301117187802     -1.18392143521889
  N   3.69507640701257     -2.16450340951451     -1.83142273647725
  C   2.75511005459423      0.38502197898994      0.26526370764619
  N   4.11756967053581      0.52310410839241      0.20836973536834
  H   4.49175998068649      1.44938843203527      0.30790249574120
  H   4.62682723522271     -0.06937260078284     -0.42622823445599
  C   2.09331872837284      1.33205631165373      1.09849052025962
  C   0.78454913434566      1.71123885775088      1.00665093417912
  N   0.28166163390235      2.68964012988898      1.81038328280579
  H   0.77695445498766      2.96802579902220      2.63880921518427
  H   -0.70915603118520      2.84584736362062      1.80481958118807
  C   -0.13800635285433      1.12791484086074      0.02312114549880
  C   -0.87099043777441      1.89064354791943     -0.83703895831730
  N   -0.71672068681858      3.27498328254570     -0.91003590826977
  H   0.21078214186033      3.61635758037654     -0.71574636564194
  H   -1.10049359411528      3.68965841102045     -1.74225535876964
  C   -1.92704681793641      1.34997069517325     -1.65733774920860
  C   -2.74436167177527      0.32128385464666     -1.34345336863152
  H   -3.58130641696032      0.14757935576979     -2.00937400568389
  H   -2.17350177831806      1.91238191432896     -2.55148827098241
  H   2.72083594937465      1.83290357017506      1.82816402708251
