24
Coordinates from ORCA-job ./opt_b97-3c_parallel
  N   0.03998503245424      3.85081861359110      0.64713210688899
  C   0.20811386841856      2.71944027327366      0.44920575087655
  C   0.43068462061909      1.33648145218908      0.23097991341472
  C   1.66528127458780      0.81167590041064      0.64765678891846
  C   2.25685794052098     -0.39956486536756      0.35616632842436
  C   3.58145996924945     -0.62376890960729      0.78995009389904
  N   4.67535009087730     -0.86340568842414      1.10470255061836
  C   1.67114329453689     -1.41248017328372     -0.50569725065315
  N   0.39010984813940     -1.62309289745516     -0.67601132108337
  C   -0.62181720555223     -0.86522822568384     -0.26996543040373
  N   -1.69448461724760     -1.44469332660416      0.21442588005620
  C   -2.91621015458703     -0.90754050482390      0.32029271728692
  N   -3.52747663823162     -0.05072708298955     -0.52085038018951
  C   -2.80614814928203      0.78796207267790     -1.24104454399978
  N   -1.56525537300166      1.20643774078144     -1.06681486292589
  C   -0.59825969417245      0.60880848903714     -0.39073573246722
  H   -3.34336779954229      1.29280443760298     -2.03705889062227
  N   -3.68143866389804     -1.39225800304072      1.31006385935594
  H   -4.65262155558270     -1.14080928499766      1.33375831843699
  H   -3.35845754876783     -2.17623701375621      1.84641641483427
  N   2.51072937571636     -2.24045830832685     -1.15203019504538
  H   2.12417626490598     -3.03500444469900     -1.62845972890206
  H   3.50138728182475     -2.20852120764095     -0.99153610872282
  H   2.27965374081135      1.49593983773336      1.21697530920785
