26
Coordinates from ORCA-job ./opt_b97-3c_parallel
  N   -5.55995984079081     -0.66665998143791     -0.14802437652644
  C   -4.40759458921534     -0.56772377671865     -0.01721331405482
  C   -3.01569243300963     -0.37363112173708      0.11087070619839
  C   -2.50818028733049      0.88270638900392     -0.31290306969439
  C   -1.19479317121552      1.33791006039947     -0.10255267289958
  C   -0.05241335655714      0.69375847532765      0.32912396664802
  N   0.92257273158953      1.49408219930784      0.82603593351715
  C   2.21347614252240      1.32730702193610      0.83101642148343
  C   3.00400704978250      0.35466574550160      0.19743188628330
  C   4.39254184474307      0.55468632696157      0.10291611472576
  N   5.54494479705869      0.67581326317928     -0.01438384663419
  C   2.45580887878438     -0.85287983818948     -0.31409629900796
  N   1.25033798216109     -1.35058696490970     -0.04606185152439
  C   0.12830565629023     -0.76329766121715      0.32709516226844
  C   -0.91518156528648     -1.61726968973712      0.74945510317609
  C   -2.26894878195304     -1.42833207485373      0.65407499972318
  H   -2.86874266920636     -2.27084500616466      0.97426192336077
  H   -0.58601956576161     -2.60160633657925      1.05548496690850
  N   3.22886416303069     -1.64774970791111     -1.07794225681616
  H   4.19191382027924     -1.42091628941131     -1.25267816260347
  H   2.90675405448327     -2.57951654544950     -1.26646698071608
  H   2.75857987820371      2.08710570477104      1.38444903910640
  H   -1.05810790765385      2.40895132026069     -0.20194175133342
  N   -3.37139442743215      1.75854506887131     -0.87874565714446
  H   -4.35897833637974      1.57099420948578     -0.88933222956593
  H   -3.08220705513670      2.69967392361062     -1.06655732837899
