32
Coordinates from ORCA-job ./opt_b97-3c_parallel
  N   -3.61363360107096     -2.75279702677799     -1.56576579471909
  C   -2.92574043726337     -1.97052508123251     -1.04394023758455
  C   -2.15347026634982     -0.99050814682244     -0.38885169536007
  C   -2.83640408936037      0.13272267123414      0.08748801470466
  N   -4.17116265439986      0.25841594808986     -0.16971170143029
  H   -4.69974846101888      0.93694665450985      0.34518309437939
  H   -4.68447886379432     -0.54156378305204     -0.50031318304321
  C   -2.26838047997649      1.15525794761667      0.90835452985983
  C   -0.96288498317603      1.54053537819373      0.95674253534577
  N   -0.51391006665876      2.43494559106776      1.88841237523268
  H   0.29903246290499      2.96986337724858      1.63075716572720
  H   -1.19591092351811      2.94600933746853      2.42422279337245
  C   0.06763836970840      1.00594574127310      0.04740833576277
  C   0.78588238475446      1.83288731660675     -0.75952025549839
  N   0.46972498094806      3.19850881348791     -0.82412490383338
  H   -0.52089091186020      3.38956954169149     -0.84857424168470
  H   0.94266710865458      3.68543243486655     -1.56733306896379
  C   1.94168549474982      1.42363726808180     -1.51208460698870
  C   2.79776392659580      0.42821367592898     -1.19529448857089
  C   2.72303272481910     -0.52007911283674     -0.12144716803644
  C   3.92314297403393     -1.14122856871627      0.28280497757858
  N   4.87822228597211     -1.68732945614212      0.66434591451907
  C   1.55260711472888     -0.95359602065084      0.48918681604302
  N   1.57409089111919     -1.92434879931058      1.42588617411934
  H   0.73666386419402     -2.12972181323446      1.93664607403833
  H   2.44606759990883     -2.27771425070898      1.78432454358087
  C   0.23520635346717     -0.44894430060492      0.09386800478313
  C   -0.78299374882032     -1.31307151232071     -0.12670983329028
  H   -0.54802338837424     -2.37098169366727     -0.14775157950220
  H   3.69395782887539      0.35228098576478     -1.79911729563346
  H   2.21475557865505      2.05371957944747     -2.35101951273514
  H   -2.96808782714993      1.67544537140029      1.55632625512702
