27
Coordinates from ORCA-job ./opt_b97-3c_parallel
  N   -2.56912848399013     -3.31195607884421     -1.38074074317948
  C   -2.04391736982489     -2.35752913617144     -0.97481195674957
  C   -1.35811461570321     -1.23541771876418     -0.44784006085390
  C   -2.00611874690145     -0.03406627861985     -0.47302659763194
  C   -1.58515873258674      1.23189340091338      0.02274322612494
  C   -2.59098987676787      2.19216343281989      0.27604585800196
  N   -3.35952974834110      3.03291110947628      0.51109676389217
  C   -0.26917342410179      1.65033522609756      0.20217777191623
  N   0.01097025193004      2.87963570959865      0.66286203464734
  H   0.96335629633882      3.14171879591242      0.83414038643873
  H   -0.71780672192004      3.49948835945151      0.97779959730805
  C   0.87014139577878      0.80872978296507     -0.18430979356009
  C   1.90384280286813      1.33851190687137     -0.89515318296800
  C   3.10002966774135      0.64632458092309     -1.24062367560772
  C   3.66055858950869     -0.37795157017557     -0.54546744966420
  N   3.31012408502928     -0.78080008156186      0.71879528743840
  C   2.10350935355790     -0.80939211373844      1.13708542183880
  C   0.89417588495446     -0.55373809374424      0.32364328164224
  C   -0.07294973288230     -1.49764720758265      0.19182252792617
  N   0.10658381629816     -2.76160661361353      0.72215056963072
  H   1.05333031941546     -3.10076268528294      0.74074707113854
  H   -0.54654570637483     -3.46606639553901      0.42170769150597
  H   1.95505178842407     -1.00446229755502      2.19959268863727
  H   4.58536768324754     -0.81239897696464     -0.90451204583949
  H   3.65710258715335      1.02534446379791     -2.08896177576779
  H   1.79255136237791      2.34543435454222     -1.28146915546832
  H   -3.01133758273045     -0.04855355400197     -0.87305075219714
