21
Coordinates from ORCA-job ./opt_b97-3c_parallel
  N   -1.54328637135666     -3.22026283034866     -0.29197584607054
  C   -1.36976883814736     -2.07454856665823     -0.22094152612310
  C   -1.18271906756053     -0.66782483049938     -0.16415003413201
  C   0.04956678461950     -0.21785270069046      0.27993126117502
  N   0.87800436421264     -1.04286946884504      0.97300256344507
  C   2.13428004255102     -1.25771374345331      0.75508857075765
  C   2.94063309227051     -0.66065331990913     -0.24685716761788
  C   2.64381470361117      0.55205567757923     -0.79934086384659
  N   1.67666650956091      1.41633421713932     -0.42947217463154
  C   0.52112732390377      1.16349853145504      0.11157200050173
  C   -0.28456608248353      2.25285434323128      0.58807979643047
  C   -1.62506891110278      2.36974285383706      0.40195029842473
  C   -2.51868634155293      1.45504023065196     -0.21184374708207
  C   -2.31160138711083      0.13791590215393     -0.48947835429596
  H   -3.14495045444065     -0.40497852230178     -0.91563479626939
  H   -3.50219927549146      1.84254252613842     -0.44298243683277
  H   -2.06371510714734      3.31351846393405      0.70436169806962
  H   0.26155532114895      3.09752591875604      0.98916889418718
  H   3.30869359446369      0.95229979807537     -1.55741037852753
  H   3.88549343530422     -1.12621674835306     -0.49176728445229
  H   2.60512791374729     -1.96052248749337      1.43771060829110
