28
Coordinates from ORCA-job ./opt_b97-3c_parallel
  N   -4.52610546110566     -0.06230440113285      0.79495119504326
  C   -3.46756985074744      0.16650380252932      0.36752522115564
  C   -2.15854881188357      0.38302753410148     -0.11857902178776
  C   -1.14991498545518     -0.39278999180337      0.42236867515026
  N   -1.35546035529328     -1.18890095394427      1.50199137310892
  H   -2.29594895509078     -1.30267752602381      1.84682205637233
  H   -0.75704962150065     -1.99349964002434      1.59247027670759
  C   0.22485773983769     -0.38745295371029     -0.11868652676199
  C   0.80525392055612     -1.54946724877157     -0.54506071044692
  N   2.09734111992703     -1.74475820694973     -0.96114050258516
  C   3.10344630672934     -1.04764715737667     -0.51755134963046
  C   3.16738078104740      0.04894551180684      0.37464875929613
  C   2.16488957079432      0.94982877132199      0.61827376074047
  N   2.33308452464704      1.99373885248415      1.47266743583337
  H   3.07628370616826      1.96289620318164      2.14915901275636
  H   1.51982078813222      2.52001568263224      1.73595140596228
  C   0.89260986288925      0.90888367631634     -0.12103750200551
  C   0.38909836469487      2.02560588217430     -0.69885686872385
  C   -0.87177020710537      2.14149522500944     -1.35734621604763
  C   -1.98437599576796      1.41063436648987     -1.11265692109149
  H   -2.88714953258024      1.68990178019664     -1.64145406949990
  H   -0.96713443910030      2.95276718138160     -2.06871940768278
  H   1.00704341695279      2.91697536691145     -0.68805343346922
  H   4.13549794617673      0.23263119435356      0.82803691788122
  H   4.07149741899637     -1.41699411790790     -0.85292282823325
  N   0.06615659722828     -2.73691449634080     -0.57302737057007
  H   -0.88758564302813     -2.63027793133518     -0.88624542442102
  H   0.55376382098335     -3.43720304917732     -1.11016291345427
