27
Coordinates from ORCA-job ./opt_b97-3c_parallel
  N   5.17861798093030      0.61318408324279      0.78813793880026
  C   4.15257246901137      0.22600104700260      0.39727274507527
  C   2.87308340437890     -0.18063478026569     -0.03870674819721
  C   2.80748079451646     -1.37837924857172     -0.82204995111253
  C   1.75088618569573     -2.20923673530011     -0.99467542405037
  C   0.46337071690726     -2.05851844095313     -0.41743605816301
  C   -0.15571508745721     -0.90817733206759     -0.02897781804149
  C   -1.46081558293277     -1.02261181450132      0.57391311184588
  C   -2.51279526936494     -0.17696266496811      0.43939140757344
  C   -3.71238262874232     -0.46804889770443      1.13121166416454
  N   -4.72882838972806     -0.66817578082050      1.65914851101744
  C   -2.55769036576740      0.93330588643242     -0.54984012563501
  N   -1.56936717310488      1.65968214285694     -0.95191513493962
  C   -0.28136600642153      1.53895933713912     -0.51738885985028
  C   0.42159886268842      0.44258977328575     -0.13931704825262
  C   1.80626600078399      0.63466548988453      0.32371161511769
  N   2.02361571685509      1.73081263187588      1.07947220761237
  H   2.93017342526488      1.90400057726886      1.48214799578454
  H   1.24198448289531      2.23418898116247      1.45418851342246
  H   0.26157126699970      2.47530029496700     -0.58692169867274
  N   -3.77757957059461      1.16626143197672     -1.08768414646796
  H   -4.60945407803849      0.76863534870764     -0.69129456242849
  H   -3.87170998449959      1.97334287419412     -1.67848374160726
  H   -1.63537734154748     -1.90505456503295      1.18063896354002
  H   -0.10765414769949     -2.97384371846389     -0.30138027737590
  H   1.93436289048780     -3.13260307815056     -1.52832437626345
  H   3.75645816843558     -1.70107436017847     -1.23150887400522
