28
Coordinates from ORCA-job ./opt_b97-3c_parallel
  N   4.89244649652827      1.17171112602697      0.91946498479191
  C   3.84591350395097      0.81607938170668      0.56045138033657
  C   2.58076339369301      0.35973643188856      0.10830449043294
  C   1.47506099167522      1.08411390866646      0.44588118932799
  C   0.12090464847549      0.78965227036913      0.08109841814654
  C   -0.72527962376873      1.84386011144379     -0.14059428619950
  N   -1.99543458910619      1.84309469724999     -0.59706514061697
  C   -2.87178110392506      0.91250921274203     -0.33362260494387
  N   -4.08436912982551      1.02679164929574     -0.95788412765325
  H   -4.29040008755833      1.92440980016635     -1.36229035142835
  H   -4.86444437926382      0.50386206597249     -0.60526227491541
  C   -2.73841849184825     -0.17088243148924      0.61131647935014
  C   -1.57863174587356     -0.83126455417523      0.85023439138281
  N   -1.49075563393850     -1.80633784025815      1.81180258471209
  H   -2.13969105050750     -1.77725513617803      2.57922466430997
  H   -0.56769975458439     -2.12325444178583      2.04923983474239
  C   -0.35609226459485     -0.60383032928459      0.04474764443656
  C   0.26837963477053     -1.63771106272393     -0.57484947579501
  N   -0.25329960300186     -2.92913839852557     -0.57157124589809
  H   0.07384700032033     -3.51496109707430     -1.32088550376512
  H   -1.24941606193940     -2.99813691867043     -0.44155754265954
  C   1.58682616470875     -1.55117795212628     -1.18519964362076
  C   2.59864644078850     -0.74605132154294     -0.83059736526348
  H   3.55482144179788     -0.91675974720299     -1.30993151694182
  H   1.81188304464236     -2.31590261040326     -1.92122307202267
  H   -3.62407953835843     -0.44385308412480      1.17768816952433
  H   -0.30352245427693      2.83978437836630     -0.03228875198623
  H   1.64833126701987      2.00651293467180      0.99083821291595
