28
Coordinates from ORCA-job ./opt_b97-3c_parallel
  N   3.18807583732993      2.80809715973981     -0.20019179358257
  C   2.52153517480400      1.85681710910767     -0.11520314281631
  C   1.77958948184506      0.65829461813673     -0.04935446855758
  C   2.52174459437360     -0.52012681794394     -0.43684958271853
  C   2.15841960048829     -1.82583733442650     -0.17693199713647
  C   0.99476270900661     -2.22412738482338      0.50226656755331
  N   -0.15450301256624     -1.58122834232999      0.59672562996295
  C   -0.49826606820657     -0.34773986919888      0.25402033419838
  C   0.42733992579869      0.78343049900664      0.31664332654872
  C   -0.02741782149788      2.02206848618490      0.81540395811818
  C   -1.29738957079623      2.55762396470737      0.82722530536076
  N   -2.43790054620606      2.17391286040817      0.26938872503034
  C   -2.64541439960116      0.97763036757855     -0.27221764955634
  C   -1.84733904686955     -0.20587896924329     -0.14643134464447
  C   -2.50569041138583     -1.42102096195431     -0.44389826255255
  N   -3.13281188862556     -2.35692212478868     -0.73672916195780
  N   -3.80791530402487      0.87982049639341     -0.95289400972916
  H   -4.15707260070672     -0.00835851728779     -1.26646352009158
  H   -4.45250301392209      1.64339512092832     -0.85315865322557
  H   -1.37479095989667      3.52621150007191      1.31306745809901
  H   0.73693685144826      2.68432923027110      1.20003799790487
  N   0.99071381692948     -3.44126940924403      1.10772298656191
  H   0.09433918848787     -3.83877189886830      1.32652740187609
  H   1.76079420380561     -4.07078557317481      0.98387746686575
  H   2.87470387447212     -2.59821337925405     -0.42895440930440
  N   3.70105635039743     -0.30482740465136     -1.07851166730630
  H   4.35091531715933     -1.06395991512185     -1.16426524251926
  H   4.09621648425961      0.61920564967651     -1.10385442397914
