27
Coordinates from ORCA-job ./opt_b97-3c_parallel
  N   -5.26991660279591     -0.34627528513023      1.44820304371911
  C   -4.25434184955887     -0.17345689785435      0.91508921819990
  C   -3.02404118853552      0.05326389003265      0.23243166854020
  C   -1.89780553906936     -0.48293336859725      0.76237488115052
  C   -0.56913941300960     -0.43017216654354      0.15612762982876
  C   0.16422986950539     -1.55693410933906      0.03755734449452
  C   1.51959996833225     -1.66882088905077     -0.42897273643853
  C   1.91242252526303     -2.94339300581442     -0.91631978264905
  N   2.20898849688964     -3.99426035770601     -1.31103434182943
  C   2.47834349846308     -0.69925170380708     -0.33813484299678
  C   2.34947355659858      0.61086894358731      0.20635212007038
  C   3.53727292962966      1.25047312476595      0.63171083512767
  N   4.46834798375632      1.83635199097970      1.00813887869975
  C   1.17752951356997      1.34628981620760      0.33943062628181
  N   1.17380746355864      2.55315849794791      0.93320240957136
  H   1.98867136240576      2.89987887328533      1.41265897267679
  H   0.31064902533701      3.04917208041447      1.05122995377704
  C   -0.10735858715329      0.90674168537382     -0.23413197571962
  C   -0.81236171545617      1.75591319696455     -1.01641313716297
  C   -2.13157015425000      1.56406276751572     -1.53635189794065
  C   -3.11709568706300      0.82078422936567     -0.99270171924495
  H   -4.09828626506642      0.86609827383887     -1.44557921988850
  H   -2.38837024050531      2.16106454799146     -2.40257476861238
  H   -0.32496735923315      2.67898535985534     -1.30909513812021
  H   3.48267640463377     -0.98032745849027     -0.62386993192918
  H   -0.31993717570775     -2.49002781733391      0.29999966582871
  H   -1.99193448693828     -1.03384986275990      1.69072931736477
