24
Coordinates from ORCA-job ./opt_b97-3c_parallel
  N   0.99384762890910      1.82349044743995     -1.53538247947131
  C   1.21618676121545      0.97161191867718     -0.49544954339805
  N   2.42308706261839      0.80101059349044     -0.06909408380115
  C   2.81448172290471     -0.25691717298888      0.69872644428236
  C   2.29385286087382     -1.51354427680773      0.72786228318307
  C   1.09390735072269     -1.94899827510522      0.09875652249870
  C   0.02122270069368     -1.17200054993569     -0.21017156524044
  C   -1.15033209743097     -1.73752304545378     -0.86599952141921
  C   -2.42150548669552     -1.43580775842417     -0.54552279643911
  C   -2.83154129013453     -0.54305458915664      0.51199188467129
  N   -2.23963084525514      0.48469693403506      1.01254401126793
  C   -1.03036927482073      0.97609543862138      0.54171237624930
  N   -0.96567288257953      2.36939762369128      0.66583767431637
  H   -0.05509126454709      2.72106444357134      0.92211902665223
  H   -1.67305380307148      2.69801228697598      1.30504166171944
  C   0.00050281957978      0.26614427870037      0.01494095320727
  H   -3.81174012354539     -0.75244903174667      0.93881208686367
  H   -3.22230977760225     -1.97309904124027     -1.04054297352853
  H   -0.98260066701323     -2.49082167066414     -1.63041520652668
  H   1.00735932174735     -3.01149153277984     -0.10570911311343
  H   2.88448034013549     -2.26972755826121      1.23101836098141
  H   3.74593347329546     -0.08225151207469      1.22564675852785
  H   0.09806699450569      2.28095584128704     -1.57859920575806
  H   1.78631077319445      2.36871760434873     -1.83254828092484
