27
Coordinates from ORCA-job ./opt_b97-3c_parallel
  N   -0.67998635226947     -2.98198010924053      1.98603239203774
  C   -0.11660095900121     -2.23557618949192      1.29465889181055
  C   0.62612874363572     -1.31607196501966      0.51724268706407
  C   -0.02494881578921     -0.06503546744845      0.16819273361555
  C   0.75419511561575      1.15582716036034      0.30637649972638
  C   0.12822599548654      2.28521623932253      0.94047975814583
  C   -1.17436731516667      2.67247087614629      0.90591309077201
  N   -2.22281059002663      2.21347460066335      0.19967957598444
  C   -2.27877501129896      1.03527224216220     -0.36994346152815
  C   -1.36013804892510     -0.09427101781238     -0.20653645063247
  C   -1.90458933397686     -1.34065190923866     -0.59472107541874
  N   -2.42443008529613     -2.29302656668461     -1.01445746867311
  N   -3.35479651540367      0.82362378673460     -1.15804832320241
  H   -4.07731105566313      1.52083058688566     -1.12923929210284
  H   -3.58527647945851     -0.09320115986442     -1.49774789682970
  H   -1.41363286424116      3.56576935902108      1.47508594103225
  H   0.79735499337972      2.92960602008279      1.49750960457153
  C   2.07817564106517      1.28979814226722     -0.04512370635838
  C   3.01875594817971      0.36585177163350     -0.56020496443442
  N   4.13758001592076      0.89759781377439     -1.13432166627566
  H   4.33670881452922      1.87311179895369     -1.00992842881532
  H   4.93850163178982      0.30986884725959     -1.27784312562891
  C   2.92081470068877     -1.01961816282913     -0.46891923742178
  C   1.90014581466993     -1.71962632840344      0.14584657127201
  H   2.11505468045614     -2.75995572916986      0.35756175192965
  H   3.77150187498141     -1.59877915610829     -0.80561183107367
  H   2.45081966301817      2.30445944964373      0.04495040763347
