25
Coordinates from ORCA-job ./opt_b97-3c_parallel
  N   5.04051974842691      0.71689147415490     -0.27564742584569
  C   3.87907830289503      0.62174618401250     -0.24999119251181
  C   2.48647888926473      0.43822564691596     -0.19019897480915
  C   1.64114864474328      1.52474006552080     -0.45268477148463
  C   0.28153237708300      1.63949647566058     -0.34972533520066
  C   -0.72334923751433      0.66960773677864     -0.08291934722522
  C   -0.40486797501211     -0.75818940473351     -0.13982349669703
  N   0.76959893969695     -1.29285142775983      0.15860192097638
  C   1.99968728035820     -0.81457123159694      0.27652244289181
  N   2.86592822541226     -1.65966410942949      0.87596853463983
  H   2.56685013634497     -2.60434509326593      1.03305741637907
  H   3.84449204754970     -1.44140339008642      0.93523497608556
  C   -1.38079252382570     -1.69332337743776     -0.55359908430655
  C   -2.75722891786360     -1.61582772155124     -0.58712733701686
  N   -3.62911998748092     -0.69827039982576     -0.18677815137451
  C   -3.25945378726638      0.51554691844084      0.23075022601702
  C   -1.99966053743009      1.15006486885832      0.17878820255503
  H   -2.03932749745923      2.22033274368646      0.35020505410813
  N   -4.29384188317397      1.24730167162133      0.72278465567247
  H   -4.19722736706656      2.22820891159138      0.90484961752107
  H   -5.21739752773326      0.88245644823623      0.57166215817889
  H   -3.24378244108703     -2.51305482040039     -0.96119953154412
  H   -0.96646602962012     -2.65842878394431     -0.81435977537532
  H   -0.10287049155457      2.63465164694653     -0.53385448626488
  H   2.15676234631051      2.43403976161990     -0.73580403977154
