26
Coordinates from ORCA-job ./opt_b97-3c_parallel
  N   -5.41140130120607     -0.81312418911218      0.27109848147201
  C   -4.26168286554870     -0.68825877185214      0.15898743675595
  C   -2.85703501346400     -0.55991757588253      0.01495721964830
  C   -2.17399538022648     -1.64637269441780     -0.58830389992494
  C   -0.83881240514756     -1.85927116408612     -0.70758006142703
  C   0.28976950593524     -1.08930088307002     -0.26854506673592
  C   0.22145537719830      0.36085672235194     -0.10279610115700
  N   1.25283575254335      1.14834055211250     -0.37049827830078
  C   2.55170255033429      0.90114864954283     -0.38606162494335
  N   3.26766419194158     -0.08532125529099      0.19190864796191
  C   2.74674296942044     -1.28813775170945      0.34251833759577
  C   1.46293919965509     -1.77543138248595     -0.05384874233730
  H   1.39397607544207     -2.85386958513374     -0.12673465486100
  N   3.59109166631434     -2.20929919591272      0.86345640002300
  H   3.24494662091620     -3.08458441008812      1.20878873770234
  H   4.47450049348948     -1.88117492889126      1.21167596790403
  N   3.29724988289990      1.84564947090365     -0.99193936784412
  H   4.29501836660524      1.79971854334801     -0.89972285282614
  H   2.86381735088974      2.72103826961105     -1.22370152516782
  C   -0.94439464972043      1.04209896761033      0.34686564296340
  C   -0.72258913913146      2.39362958794141      0.73276495698254
  N   -0.59540668895475      3.49651382022453      1.07323257890800
  C   -2.27418797685478      0.61572509306029      0.44459886830019
  H   -2.94928106430124      1.34802925028573      0.86584576126415
  H   -0.56607444917955     -2.80791613787697     -1.15461561560598
  H   -2.81000885735000     -2.43621983978125     -0.96689049975070
