25
Coordinates from ORCA-job ./opt_b97-3c_parallel
  N   -5.04441892271262     -0.99570125046757     -0.00597411427525
  C   -3.89374844114107     -0.86087988790918     -0.11949585960076
  C   -2.50386325139593     -0.65669471968430     -0.19960688834996
  C   -1.72666720984509     -1.53339676231624     -0.97775571766487
  N   -0.43787336376950     -1.71207447912611     -0.99993004192331
  C   0.53978332154760     -1.00447489359203     -0.38940925727233
  C   1.67212867683907     -1.67924548582199     -0.00199259569326
  C   2.93767239430655     -1.14174615056186      0.32949820014450
  N   3.46045176579960      0.03818104989606     -0.02294227272037
  C   2.78941195185690      1.05512639175439     -0.52504498854844
  C   1.42179437812691      1.32915380501013     -0.59980631379964
  C   1.05659061843921      2.65043314124593     -0.95381572821340
  N   0.77675111879932      3.73509920113935     -1.26124606525475
  C   0.36436433161489      0.44786318567320     -0.21166477264310
  N   -0.73641318766030      0.98124754004908      0.24663038701001
  C   -1.94448309824312      0.45884157217886      0.47245093391325
  N   -2.68681653492563      1.14688720763599      1.35838929673362
  H   -3.65258534983955      0.91306803586865      1.50927268739001
  H   -2.36519917213373      2.05877787644260      1.63042639709113
  H   3.42843543544951      1.86633624770426     -0.85957524132274
  N   3.80653946523163     -1.94554506366045      0.97696482245206
  H   4.75820947097720     -1.63958583241087      1.07279311847707
  H   3.55573019887022     -2.86905379493042      1.27394855419113
  H   1.58960363009228     -2.75939175296897     -0.03047224089649
  H   -2.28127015448502     -2.19393141465183     -1.63805930172565
