25
Coordinates from ORCA-job ./opt_b97-3c_parallel
  N   -5.51133077900639      0.22426704167834      0.29823669461044
  C   -4.35385241570675      0.20559134363003      0.19723058349364
  C   -2.94653741589349      0.20287874773543      0.07116257890039
  C   -2.36036483822347      0.95104734723049     -0.98144509819415
  N   -1.12509054316323      1.32319862223752     -1.10471418364094
  C   -0.04540182562706      1.02750087710240     -0.34385828784754
  C   0.90670826969989      1.97373775261691     -0.11295503200379
  C   2.24601037048539      1.71132337609327      0.29675751323076
  N   2.96135110406975      0.61652384941729      0.10617333470015
  C   2.52894491341775     -0.58139715674027     -0.28556229052884
  N   3.50164666882109     -1.39373260563249     -0.74208458144135
  H   3.32196282343714     -2.36883190347849     -0.90758278729137
  H   4.45239058995757     -1.09688987164888     -0.61601842961146
  C   1.21630705523635     -1.13034489434214     -0.14412524153629
  C   1.10376226584598     -2.53457347308737     -0.14053188496018
  N   1.09131412554686     -3.69729014085598     -0.18344965289654
  C   0.06998317980151     -0.37052716473851      0.14407499113654
  N   -0.91638537100541     -0.90701892690200      0.83556864763898
  C   -2.18634899607998     -0.57313137481597      0.94338333607584
  H   -2.69982526498379     -1.03557465733274      1.77974764317994
  N   2.93915475770557      2.75431255095321      0.80492540114086
  H   2.46639164944271      3.57369011623450      1.13580099493162
  H   3.89567329165506      2.60782237290213      1.07298483596796
  H   0.65725444411907      2.99617484321033     -0.36717197142001
  H   -3.02067589095210      1.28344940343272     -1.77708671143436
