27
Coordinates from ORCA-job ./opt_b97-3c_parallel
  N   -3.47905942033726     -2.60119443123145      0.54514089163981
  C   -2.40320496812866     -2.17351558072030      0.45187918457711
  C   -1.07542490002680     -1.68858964739509      0.35680916680621
  C   -0.05560186831794     -2.56615047856115      0.79844812477647
  N   1.22152458124376     -2.58724805886628      0.55605546684776
  C   1.88543022530739     -1.68397839081495     -0.20766658368950
  N   3.01315471939699     -2.18345687142604     -0.73826535786470
  H   3.30006024797155     -3.09846611342923     -0.44083775211966
  H   3.66268981310836     -1.60303469703187     -1.24015747114310
  C   1.56684986733257     -0.32307523163523     -0.40400155866336
  C   2.53262489678084      0.44474683447793     -1.08391788106477
  N   3.35405349171219      0.98169915260721     -1.71012315920536
  C   0.36529620490616      0.32768725336524      0.02429239534787
  C   -0.91642519244043     -0.36896365201482     -0.09646263075316
  N   -1.96982328038422      0.20996262121384     -0.66530238038912
  C   -2.43645574962865      1.42787003236382     -0.60299515556729
  C   -1.96975841414021      2.45855458856554      0.27500708781492
  C   -0.69791816853664      2.52429731509228      0.73369430365786
  C   0.39763750259810      1.63726512477080      0.50987738186433
  C   1.64644555525057      2.14814239614154      0.94874827010118
  N   2.63151303298000      2.59401244236797      1.37289610898156
  H   -0.44230796020176      3.40510995235496      1.30787572069559
  H   -2.63946098271693      3.28046756181303      0.49005592793521
  N   -3.48868904209390      1.70888174910589     -1.40094857826918
  H   -3.81898694170392      0.99504767679988     -2.02623066350296
  H   -3.78026280615874      2.65434672351404     -1.55962050926132
  H   -0.40550116237292     -3.40714542702719      1.39015328744783
