21
Coordinates from ORCA-job ./opt_b97-3c_parallel
  N   -3.32949840862759     -1.37690117763330      0.63708073649045
  C   -2.31835691861536     -0.55115251371364      0.22823540765807
  C   -1.04176027571589     -1.13640627138878      0.10315720286588
  C   0.16415231797385     -0.54622190733084     -0.19627023669106
  N   1.12608237377812     -1.31718972539311     -0.77304919622175
  C   2.41889909906850     -1.24446488768345     -0.64727038327679
  N   3.19503840252989     -0.56002295560930      0.21232981365238
  C   2.70203799655086      0.51383752899054      0.80839766386842
  N   1.61619929039420      1.23133891231711      0.57246204166336
  C   0.47317083761928      0.87831302962124     -0.01585592844194
  C   -0.41871747654551      1.87709778315738     -0.41978403309556
  C   -1.80027360584681      1.79479329319190     -0.45837462438534
  C   -2.65577970053167      0.76563324454243     -0.10707034785263
  H   -3.71124450560995      1.00916965318281     -0.08124075025263
  H   -2.29840069068771      2.72109688872354     -0.72148968015919
  H   0.02074608725950      2.85779664423186     -0.55136404718530
  H   3.34289442209868      0.94063950040261      1.57621285058302
  H   2.96833971113446     -1.89897471054850     -1.31960070400687
  H   -1.01317774340391     -2.22079059072812      0.10014650505352
  H   -3.16705997566503     -2.36738986338086      0.64964476733147
  H   -4.27748146205763     -1.10566371495102      0.44743336970294
