27
Coordinates from ORCA-job ./opt_b97-3c_parallel
  N   2.12354005863108      2.53841106284796      1.44246048206706
  C   1.90457703890208      1.52014236198535      0.92836396490169
  C   1.66703526459111      0.23237931372001      0.37949590534709
  C   0.41147917204066     -0.00723172626867     -0.18954298917002
  C   -0.01084807057644     -1.38552693910775     -0.44297929048771
  N   0.82073967635354     -2.17256395120207     -1.20746920085495
  C   2.05418311525336     -2.45467704942721     -0.96228377495390
  C   2.88822756063897     -1.93718714827936      0.06115704437716
  C   2.71265693441300     -0.70385840971908      0.61252524534845
  H   3.50269643473036     -0.34107899779178      1.25736277758494
  H   3.81164009301133     -2.46214296829178      0.26596246080405
  H   2.51650549411061     -3.14015453577601     -1.67028947345771
  C   -1.21027392266333     -1.90499301794045     -0.07654303118799
  C   -2.33028415328748     -1.23244221995638      0.49156546286334
  C   -2.59828792823821      0.11872901324054      0.41130110557855
  C   -1.84473305865114      1.12344520519071     -0.22573054877018
  C   -0.46377793109464      1.06650916946101     -0.53897141161994
  C   0.09246355185002      2.21693877045664     -1.12820797064878
  N   0.46568782391940      3.18407969373962     -1.65942409099591
  N   -2.49657223998115      2.28042330240520     -0.50067819216698
  H   -1.97806493473116      3.10430233019048     -0.75389055191148
  H   -3.43059242862643      2.41783758827343     -0.16481910493395
  H   -3.55325398397218      0.44055096342284      0.81132394216423
  N   -3.24462494870414     -2.03886228439636      1.11239075059198
  H   -3.16496403266482     -3.03188050086279      0.99497687017184
  H   -4.17953092946345     -1.70023572126419      1.25117427170168
  H   -1.33449980639087     -2.96163085054976     -0.28391890714256
