23
Coordinates from ORCA-job ./opt_b97-3c_parallel
  N   -2.86884519195339     -2.12851841301579      0.58970970608024
  C   -1.96922301183384     -1.16224736690986      0.25348630207757
  N   -2.54823457826448      0.00071491998407     -0.03996188299695
  C   -1.89115011670495      1.14086273314552     -0.24286130428411
  C   -0.53891771409141      1.47548056414468     -0.02388322008902
  C   0.54649505698827      0.66406031482402      0.23979668689229
  N   1.63276279588211      1.27897962007293      0.75522286451910
  C   2.90888043940041      1.01403073891924      0.64484695495226
  N   3.59441725321902      0.15143056144544     -0.10728181773700
  C   2.98858277113374     -0.93750803104589     -0.58356500308910
  C   1.70379862666430     -1.42230964370064     -0.42734119964687
  C   0.52683662363592     -0.78682893264335      0.03202727764906
  C   -0.61601425024194     -1.55266211320630      0.20358732304015
  H   -0.45247391252550     -2.62411093464634      0.22722625925643
  H   1.55370465163252     -2.42623500925036     -0.80773410076283
  H   3.65645385927503     -1.59278674901235     -1.13827056463606
  H   3.53845889113457      1.65691843637133      1.25660417573666
  H   -0.31408296984054      2.53352609490695      0.03053952847211
  N   -2.70122233458086      2.14983020655072     -0.66231084274649
  H   -2.36892000163378      3.09560833291569     -0.66943740721998
  H   -3.69128451849523      2.00251209746040     -0.58207964173972
  H   -3.83348397661319     -1.93595773524451      0.38702304211082
  H   -2.58683040188681     -3.08994102816668      0.62697121676094
