26
Coordinates from ORCA-job ./opt_b97-3c_parallel
  N   4.01204086908508      1.72368548489069      1.39157885711185
  C   3.19216544980738      1.02069810955478      0.95861985351820
  C   2.17331566477048      0.21547595444669      0.39885790378165
  C   1.06251660732333      0.90349419704181     -0.24058032597045
  N   1.29556016093960      2.19114964392665     -0.68624241705482
  H   2.17753716518838      2.59718606362117     -0.42069289054972
  H   0.53529945437356      2.84139048912184     -0.59029257457444
  C   -0.16621623216439      0.33482994698227     -0.41906185066355
  C   -1.17335568171964      0.99601139204269     -1.23879631946164
  N   -2.41968064789960      1.12517517855300     -0.96645237592169
  C   -2.92457716612679      0.68999867429143      0.26389342400469
  N   -2.76675347592374     -0.45805192647277      0.84896251611448
  C   -1.77823981879834     -1.32509958788820      0.47962069577783
  C   -0.55632371599814     -1.02081871248711     -0.02144432545788
  C   0.38176792315587     -2.08899263974564     -0.41114051377867
  N   1.65165244604700     -2.13666157214482     -0.12059804644768
  C   2.35044325334444     -1.14758175113973      0.45380677083339
  H   3.24325101036530     -1.48886016063208      0.96683370064416
  N   -0.13126261022192     -3.13068906438878     -1.09615991912931
  H   -1.05528597424618     -3.07630578568279     -1.47959548471136
  H   0.49658482377032     -3.83990073738012     -1.43496671506263
  H   -2.00038662464012     -2.36332625332172      0.70379185355859
  N   -3.77016755888176      1.59994353311281      0.81544132682526
  H   -4.33828797653829      1.27024853459393      1.57651662857830
  H   -4.18354066201403      2.27289701776079      0.19509300444642
  H   -0.85474748319252      1.39090684592428     -2.20647189361277
