26
Coordinates from ORCA-job ./opt_b97-3c_parallel
  N   3.68489052825273      2.19590908860635      0.90188824335809
  C   2.79687388156190      1.51361722032231      0.58004338561232
  C   1.76903487387138      0.63479113801383      0.18786827143827
  C   0.56119455195685      1.21667692324011     -0.31848682397536
  C   -0.66068262304693      0.65645621130428     -0.40754321439472
  C   -1.76496240496287      1.36339544392531     -1.10281933416995
  N   -2.91453745368057      1.64303075806804     -0.62615129336255
  C   -3.37524630465038      1.20445878976321      0.58742525260650
  C   -3.12847591862654     -0.00949414404938      1.14463580484376
  C   -2.16479268296621     -0.96142351479178      0.70848321266472
  C   -1.02764001667272     -0.68905089353159      0.00696195360066
  C   -0.14428319571543     -1.78179239170614     -0.42237958642821
  N   -0.78456555343420     -2.91335700458345     -0.86074968093291
  H   -1.72081013943590     -2.79109849102417     -1.20471531537248
  H   -0.24352302235355     -3.59609428872722     -1.36391140261121
  C   1.21432382177403     -1.75906170648127     -0.31411463122811
  C   2.06779904390098     -0.72756502001653      0.18528660355926
  N   3.28946100444107     -1.14440878490416      0.63053581259731
  H   4.02226988669814     -0.46560171066625      0.75180262764110
  H   3.58822690767764     -2.07887657352710      0.42513193567052
  H   1.72569075094550     -2.67936170979509     -0.57956509165354
  H   -2.31469538780405     -1.98415363166722      1.03352730122275
  H   -3.77108365477769     -0.31048483075091      1.96362964510600
  H   -4.13969821381814      1.83690792605074      1.02190024450382
  H   -1.58702107817671      1.64907011921785     -2.13923877762800
  H   0.64997542424173      2.24576565551054     -0.64972046816919
