29
Coordinates from ORCA-job ./opt_b97-3c_parallel
  N   -4.81919835657996     -0.33393463641182     -0.69014031227766
  C   -3.76627602636057     -0.03949658542820     -0.28802911735478
  C   -2.46176879195840      0.25546624681064      0.16274801027842
  C   -1.42183151962937     -0.46343973786237     -0.41210101082554
  N   -1.64162499008174     -1.29658131382298     -1.45917172453051
  H   -0.96142273621321     -2.01940459478995     -1.62618790372214
  H   -2.58934012905464     -1.49940538577323     -1.73526176573828
  C   -0.03662795806647     -0.34415264048870      0.05400488865935
  C   0.74150596733695     -1.44185289881769      0.32111474793701
  N   2.05005722807337     -1.44481936917604      0.69030793779943
  C   2.91291499051055     -0.52309473761053      0.34565065581166
  N   2.81327545231373      0.47788150473551     -0.58089706385154
  C   1.72220649697961      1.16120020249559     -0.73134852357698
  N   1.66949166202844      2.09212101770043     -1.70868339065342
  H   0.78409040495942      2.49713294946551     -1.94803382132446
  H   2.40281567982681      2.10725256769087     -2.39760045588840
  C   0.51004280167041      1.00881079492483      0.10393705794027
  C   -0.02977023232939      2.05814534680839      0.75868815614125
  C   -1.27269088572068      2.04880482972962      1.46460667704631
  C   -2.33466627557430      1.25602257703150      1.19114451664716
  H   -3.24671198712553      1.44989934568369      1.74277174684206
  H   -1.41125688571950      2.81533913401998      2.21698958497113
  H   0.51292415608901      2.99783636066235      0.74148086047710
  N   4.14946895271626     -0.60058888572571      0.91567731649793
  H   4.89420897086166     -0.12834666760200      0.43622614270166
  H   4.37515782297602     -1.46828817212736      1.36917150213388
  N   0.19756479835647     -2.73166932669814      0.26788049201362
  H   0.82306096405871     -3.38868701357480      0.70804392414214
  H   -0.73189264264354     -2.80416066554989      0.65497742880356
