26
Coordinates from ORCA-job ./opt_b97-3c_parallel
  N   -2.64873116443046     -2.65854525381626      0.41044264027441
  C   -2.01842679571844     -1.44255584395284      0.22303047169022
  C   -2.85304228095320     -0.35916250105116     -0.05612136185899
  C   -2.46575005776260      0.95569925773511     -0.26624818082516
  C   -1.17607293247974      1.50134595261609     -0.14634383739042
  C   0.06946031258688      0.93531498407770      0.09586776783561
  C   1.09897466109689      1.82065074166193      0.50760750923020
  C   2.45186626966018      1.62314037507116      0.68239638940088
  N   3.26780783905531      0.62485370255947      0.35896205725071
  C   2.77266418735622     -0.46910733151919     -0.24688148203182
  N   1.55830460906644     -0.99847389112562     -0.29920016038244
  C   0.35113856631989     -0.50073117164978      0.00079795289483
  C   -0.62192081724350     -1.48028910244088      0.21752668971762
  H   -0.18998676927343     -2.47139899705109      0.29037091776007
  N   3.72119783272815     -1.20103064869940     -0.89475103586130
  H   3.49692358325433     -2.14965192324149     -1.13116977744454
  H   4.67843923682108     -0.96328959561421     -0.70988848165172
  H   2.97412771309219      2.46515731865186      1.13206899637868
  H   0.75742296822577      2.81014275587786      0.78701756022171
  H   -1.16195514786465      2.58581985990823     -0.17692366849338
  N   -3.47575900108932      1.87170896188744     -0.50636510444091
  H   -4.33375878971389      1.49973908428098     -0.87466877196717
  H   -3.19753598022570      2.72578919268155     -0.95750740252589
  H   -3.91537409975963     -0.56867574413126     -0.11066962824932
  H   -2.10697129754367     -3.37374249265695      0.86309013298982
  H   -3.60233335850457     -2.62647626845989      0.72533844257844
