23
Coordinates from ORCA-job ./opt_b97-3c_parallel
  N   4.36335459116550      0.74898824268527      0.43363605398464
  C   3.31469393344306      0.30909613312288      0.18739072846286
  C   2.00704411479074     -0.15972887045230     -0.07385941711238
  C   0.97291378029416      0.70441491553212      0.26055067279644
  C   -0.42652672105115      0.41973298620771     -0.07250780697608
  C   -1.22426814377843      1.38623537236103     -0.62039634530322
  N   -2.50119262244186      1.24319921592408     -1.07045721762703
  C   -3.35304451681876      0.40588043048161     -0.56792094965819
  N   -3.27152722199061     -0.23139477407123      0.64248264667805
  C   -2.18427357147742     -0.74554359320231      1.06906498552677
  C   -0.95093478629149     -0.89721836687203      0.25849108256200
  C   -0.40328107250807     -2.09335293961795     -0.02954344963935
  C   0.85085276899285     -2.31333620062417     -0.67295377882416
  C   1.89997660739983     -1.45796326291290     -0.68149348171129
  H   2.82113242119841     -1.81814285006830     -1.12173549935652
  H   1.01038514278324     -3.29127520144643     -1.10817014947832
  H   -0.96177999042597     -2.97699904197194      0.26260040271638
  H   -2.14777662017974     -1.04712461711217      2.11554628111730
  H   -4.31821151013076      0.32949161335175     -1.05604820008347
  H   -0.77896675376359      2.34448140512631     -0.86331110216324
  N   1.21813982050016      1.90359420963492      0.83437285738909
  H   2.13857928199963      2.12861712067792      1.17429535886066
  H   0.45080977658816      2.44318378444438      1.18776847174191
