30
Coordinates from ORCA-job ./opt_b97-3c_parallel
  N   2.48635177280082      3.25122739341590     -1.20889362418961
  C   1.88793939068664      2.34196658558224     -0.79168441948943
  C   1.20550510762430      1.22661779765208     -0.27111541448238
  C   -0.07129715510641      1.48265955249545      0.37707524123958
  N   -0.21129618808656      2.72398401282410      0.98414289129580
  H   0.50267010748058      3.39772458488093      0.76119404202683
  H   -1.13360878443651      3.12345924650198      0.92141094508739
  C   -1.10510993930745      0.59987746648902      0.41276177603820
  C   -2.31621343582882      0.88510085602794      1.17119518985636
  C   -3.57198596494539      0.75724971447606      0.69857070645119
  C   -3.94206921227194      0.30099032689574     -0.61535409992107
  C   -3.24189070744317     -0.54438966640732     -1.40482368638724
  C   -2.01173543365729     -1.19748691678235     -1.05413166629988
  C   -1.06208866138405     -0.72079570594061     -0.21979645894393
  C   0.02340486070088     -1.60647412657305      0.23258076383841
  N   -0.35310253004193     -2.82526438221567      0.66519139367159
  H   -1.32793167263311     -3.00099945764430      0.82120673376613
  H   0.31068984661803     -3.45777638512503      1.08198386173263
  C   1.35684468186724     -1.23827055259623      0.19860362551759
  C   2.29628543681691     -2.20115495629334      0.61423218220117
  N   3.03770488935387     -3.03201634861999      0.95588475809565
  C   1.87171911583634      0.01063100765719     -0.33218897191747
  N   3.10732205166804     -0.05916245262456     -0.89284156890359
  H   3.62731656853620      0.78729995316373     -1.04836070712896
  H   3.64491395952137     -0.90181688922984     -0.80227247693962
  H   -1.85010000555114     -2.17469590383507     -1.49779058939591
  H   -3.70479519505864     -0.86516954329972     -2.33074891977140
  H   -4.92173098072240      0.60730010866807     -0.96533709980504
  H   -4.38864133645081      1.04832045361577      1.35023096091426
  H   -2.18607477578531      1.25629804444312      2.18569925904284
