28
Coordinates from ORCA-job ./opt_b97-3c_parallel
  N   -4.44879871343808     -1.63024463724462     -1.38347377749154
  C   -3.52032918512311     -1.14889387666073     -0.87094339419305
  C   -2.41918544957007     -0.51426418147848     -0.26302866673295
  C   -1.43117974645827     -1.33836828196792      0.35777075890933
  C   -0.14905027580756     -0.99612416373691      0.61876301102852
  C   0.75975040668086     -1.87404972881537      1.37216706058997
  N   1.93827685903164     -2.20568392333437      0.99977195671836
  C   2.55275867022808     -1.73618899022008     -0.11509313079283
  C   2.51140190986229     -0.46104408560501     -0.61198532666407
  C   3.45871175113043     -0.11998065430430     -1.60973366549011
  N   4.22147531476012      0.20703415211610     -2.42321793863442
  C   1.62174104713697      0.59908532536755     -0.15885694256733
  N   2.08199686754664      1.90923733517688     -0.28587381892725
  H   1.37081459052892      2.58179536803956     -0.52663405019681
  H   2.88339827403396      2.01166499471360     -0.88903322335738
  C   0.40477009590295      0.32897312995682      0.39286955518211
  C   -0.44955428388156      1.41232103161015      0.94037555980987
  N   -1.65379024911692      1.67624070055331      0.54489180219911
  C   -2.41474254543194      0.88592218195641     -0.25591146639654
  N   -3.31012315754542      1.58566988675994     -1.00461059890246
  H   -4.07599012114521      1.08804392871740     -1.42699549639428
  H   -3.50501561725591      2.52137899242623     -0.69552152638047
  N   0.07682597169944      2.14007667640933      1.94939185349232
  H   1.07584476671804      2.16986430379293      2.05507863663021
  H   -0.45148451257625      2.92542934797146      2.29048312492211
  H   3.24315229846731     -2.43463447244331     -0.57095568042463
  H   0.43539955244675     -2.25047511011116      2.34090334644804
  H   -1.74163031978188     -2.34745904722670      0.60254208151753
