30
Coordinates from ORCA-job ./opt_b97-3c_parallel
  N   -5.58462766845178      0.48895045813912     -0.96963239738047
  C   -4.47184377821517      0.27149093568103     -0.71051473402233
  C   -3.12598975237660      0.06976516420306     -0.33785558315671
  C   -2.49064567911013     -1.08947356327920     -0.72316550915720
  C   -1.21212777991884     -1.56709232120222     -0.40180025038166
  C   -0.95492973032449     -2.92441538649129     -0.72744074703855
  N   -0.77416614071929     -4.03727173749953     -1.00452841457265
  C   -0.12407201737068     -0.85874383477117      0.16271764817128
  N   0.90894429524662     -1.56475636526620      0.57470935083793
  C   2.19306597870353     -1.27451663332147      0.62411274271966
  N   2.94322268206579     -2.13469144033059      1.33918368567396
  H   2.52253183292156     -3.00661090571851      1.60772202658585
  H   3.94536542648815     -2.06950540627248      1.34298445757559
  C   2.85321320369243     -0.21697668250513     -0.07571362932823
  C   4.22813984351999     -0.36226285012766     -0.32091941058502
  N   5.37169329510203     -0.46680527502576     -0.51829724102881
  C   2.25590950653455      1.01241422678615     -0.41649290819285
  N   3.01854479610134      1.93594524864100     -1.02415769553012
  H   2.66504755883112      2.86155481895048     -1.19335241352743
  H   4.00207890504225      1.77976603675003     -1.16128759579368
  C   0.91351156592488      1.40319236587378     -0.08597672046906
  C   0.64485362176334      2.78957784326998     -0.15987735404775
  N   0.50892935061246      3.93975860284371     -0.26362014856332
  C   -0.18244677236441      0.60251349555536      0.26404204918004
  N   -1.25567261730185      1.23834326826941      0.72765867285928
  C   -2.53614309999474      1.02873027473488      0.57130013707516
  N   -3.36231273686742      1.79861547302871      1.30175348494813
  H   -2.96963385099424      2.57985309230906      1.79586091969443
  H   -4.35672126720211      1.76701182926909      1.16500976139539
  H   -3.09244791201474     -1.77220414530279     -1.30754227503261
