27
Coordinates from ORCA-job ./opt_b97-3c_parallel
  N   -5.23209645909850     -0.56466318147271     -0.16273189326667
  C   -4.06904336015802     -0.49989754931082     -0.18215794748442
  C   -2.66691421739931     -0.35590210524116     -0.17626841623824
  C   -1.91282723343350     -1.37935851718145     -0.76641513030439
  C   -0.56227609570772     -1.59895046942373     -0.79443855063833
  C   0.49436496112109     -0.83330772193610     -0.24272590099275
  N   1.58231481693918     -1.50417028814429      0.07464251444768
  C   2.79910191988578     -1.05541149424405      0.42510082386683
  C   3.38690065213389      0.15500764218384      0.09516879382143
  C   2.66562892441799      1.23867959081007     -0.42984970573551
  N   1.36059420597544      1.45928910609764     -0.38533912033799
  C   0.35936800654338      0.62467382936952     -0.07903022163454
  C   -0.80832384295707      1.23557569443810      0.37612378654037
  C   -2.14320741521873      0.82369083367782      0.41780915009716
  N   -3.02479245283925      1.66306393241763      1.03268585951809
  H   -2.72898000412700      2.59619248351339      1.25058563090219
  H   -4.01073891227371      1.53928156557196      0.87783613625960
  H   -0.64096350766406      2.26730991055715      0.66473205811591
  N   3.37030895490686      2.24009803714180     -1.03579489425770
  H   2.89696647939502      3.12045951672025     -1.13363721447316
  H   4.36790787339641      2.26999545815602     -0.93659707561998
  H   4.45762854111435      0.26159574597945      0.21983440044368
  N   3.51292673126823     -1.97731303449759      1.13683507932422
  H   3.19318783246427     -2.92717248378605      1.06780467199508
  H   4.50052250542874     -1.84398095694610      1.25574731129160
  H   -0.24066215770276     -2.55474880323078     -1.18738199130303
  H   -2.51001917551414     -2.16400416151965     -1.21414872743591
