22
Coordinates from ORCA-job ./opt_b97-3c_parallel
  N   4.56807178023249      0.32594541810560     -1.11756857575341
  C   3.49971922551188      0.17926415165164     -0.68544103708589
  C   2.21043299679970     -0.04212112527709     -0.14143841653050
  C   1.20506914355581      0.82681546860736     -0.43990499005605
  C   -0.15365221662190      0.73957964988746      0.01402151097555
  C   -0.88665447093011      1.89006027581411      0.13555723720703
  N   -2.11342230118715      2.04670071511510      0.68662107338439
  C   -3.03490385106758      1.13245885478683      0.66218605727440
  N   -3.11825178369764      0.00714886305098     -0.08661997611752
  C   -2.09600653170988     -0.72591045887346     -0.39854571508935
  N   -2.25433063883356     -1.71039762005778     -1.30330531136547
  H   -3.12123825871973     -1.76502665227463     -1.81034507731789
  H   -1.46099371989502     -2.21770645401691     -1.64670094213807
  C   -0.73627177441254     -0.59542826788020      0.19966942293243
  C   -0.11224749409352     -1.67778316783368      0.69320399865983
  N   1.12702375160361     -1.74676730478748      1.31051993488843
  C   2.13052595398349     -1.06363088725285      0.91725483611250
  H   3.06534610607739     -1.23204696997593      1.44822579699667
  H   -0.64505440089857     -2.62188633707016      0.71631541026324
  H   -3.93575605428859      1.35255040958632      1.22641579841334
  H   -0.39564501732832      2.82296531350948     -0.12670146030471
  H   1.46415172181924      1.68954733908580     -1.04548381104883
