25
Coordinates from ORCA-job ./opt_b97-3c_parallel
  N   4.78122367879595      0.40239410164296      0.17425419726482
  C   3.62267816221555      0.27557693450359      0.12126046210836
  C   2.23132327278099      0.12249002593813      0.05888140205964
  C   1.65829748936512     -1.08765689646753      0.53823200615461
  N   0.45965247656509     -1.57444685228766      0.24255842781995
  C   -0.61149255075538     -0.92413541358499     -0.18553307955776
  C   -1.60565339434347     -1.59753435237748     -0.89635604807401
  C   -2.91540943321208     -1.17811892545192     -1.12129022734760
  N   -3.64796996279676     -0.25345290224272     -0.53024460957757
  C   -3.12148089703713      0.54433614783952      0.42818219994890
  N   -1.89407334392894      1.02005479461117      0.54409949879177
  C   -0.78382294808350      0.53344953870772      0.01531602289760
  N   0.15791740921186      1.38750340808617     -0.33378136525930
  C   1.45585955674767      1.17347609398596     -0.50298389922581
  N   2.08981427701817      2.12164057315041     -1.22855574515213
  H   1.59065448362826      2.97567223108136     -1.39910266358196
  H   3.09281930410677      2.14197970986453     -1.27790540960179
  N   -4.02147577027262      0.98879907101848      1.33700595713454
  H   -3.77044755017140      1.78015370307886      1.90088384538384
  H   -4.99180223734602      0.84142152751662      1.12737820170246
  H   -3.46968164652470     -1.76160830448534     -1.85198439548706
  H   -1.31986429024867     -2.55268596085554     -1.31813152708514
  N   2.41905288577488     -1.89674412700467      1.31082931497458
  H   3.39631154484647     -1.70465821344334      1.44172009079980
  H   2.10609178046628     -2.84381605912311      1.42387211761004
