27
Coordinates from ORCA-job ./opt_b97-3c_parallel
  N   -4.40483925104322     -1.85095107604874     -0.29121172786958
  C   -3.51620399443252     -1.14176050239753     -0.04228002587790
  C   -2.39986061776576     -0.32274559878941      0.22671139650761
  C   -2.54129869794496      0.71206386981067      1.22867087665843
  N   -1.96152781707707      1.86348732066128      1.27548244760879
  C   -1.01339353197189      2.28058612894941      0.39176831738392
  C   -0.01319319072845      1.55786876603361     -0.18188019568243
  C   0.97058261091041      2.23316053175007     -0.99943138403233
  C   2.28702505645936      1.93481314370097     -1.06435308092165
  C   2.97511146103672      0.97294231833072     -0.27059547960789
  C   2.47683343263778     -0.12182756318503      0.36968662603310
  C   3.39056932006025     -0.90669400649045      1.11901509377937
  N   4.10827684870244     -1.58555547811937      1.73123940775362
  C   1.11934387877490     -0.66227464515690      0.22996451048196
  N   1.01301187789179     -2.04714760486154      0.32822379589070
  H   0.14688984299605     -2.37730329369109      0.72414139552345
  H   1.80353250580961     -2.50775417862608      0.75025092349962
  C   0.03843117644825      0.09594987418770     -0.08717372233412
  C   -1.23208120783169     -0.56044347106182     -0.47425009569924
  N   -1.18227562010107     -1.39487548524325     -1.53053741364838
  H   -2.00598981978827     -1.90839618395206     -1.80082773783376
  H   -0.29561225535899     -1.79234337632809     -1.78780507732140
  H   4.03981661279653      1.13878289179946     -0.16109628305070
  H   2.91417490310678      2.56696443970146     -1.67996752137430
  H   0.62615432113757      3.09115297179025     -1.56829407495135
  H   -1.01669370179088      3.35382301151569      0.22520271839664
  H   -3.29576847846627      0.52937213706836      1.98923253387462
