28
Coordinates from ORCA-job ./opt_b97-3c_parallel
  N   -4.58220708674723     -1.73062744506845     -1.11281269713176
  C   -3.66123651312276     -1.19557265668355     -0.65046559456903
  C   -2.54988443726134     -0.54573235592034     -0.04535930741938
  C   -2.83287664398646      0.21708992538405      1.16150288122183
  C   -2.15145384674308      1.30003391666542      1.57900527540161
  C   -1.03647423233874      1.91959546470796      0.91652050421623
  C   -0.10861058953635      1.30221180427074      0.15331671151356
  C   0.87299573138935      2.10574355845883     -0.59971674545599
  N   0.38086612009776      3.21130724482382     -1.22419047614448
  H   0.94276353976972      3.66699471073827     -1.92271265983216
  H   -0.61206872051928      3.26958361737207     -1.36070583765630
  C   2.21707545918957      1.83867604763282     -0.59293767390793
  C   2.86010697774768      0.73974869808138     -0.00289199308367
  C   2.34991730660051     -0.49097794654088      0.33400718426118
  C   3.25040228527792     -1.44044225894401      0.87266718795945
  N   3.96308850669395     -2.25166241602164      1.30562777537857
  C   1.00516358019357     -0.95742688166087      0.04500605959846
  N   0.84673681735009     -2.31841073914917     -0.13795188515718
  H   1.63933072364270     -2.89527038258762      0.08970639784511
  H   -0.02123491658317     -2.71136721350378      0.18379088157268
  C   -0.08590200642323     -0.14196294292738     -0.09894632135944
  C   -1.32458534806956     -0.70720540237262     -0.60472646282672
  H   -1.25114071178818     -1.33450651020805     -1.48939387081759
  H   3.92499875914682      0.85864736616301      0.15416101147669
  H   2.86804790126721      2.58441245284731     -1.03491665283762
  H   -0.93981364702561      2.98988078797285      1.06031734192706
  H   -2.53833970851768      1.82172078348259      2.44668859332102
  H   -3.72220891541764     -0.07311334460300      1.70578592990306
