27
Coordinates from ORCA-job ./opt_b97-3c_parallel
  N   4.36844184322888      1.21575972577092      1.25311239616385
  C   3.40910613742385      0.72744986225738      0.81481711867995
  C   2.23093260479688      0.15042546736850      0.27375218091554
  C   2.16774267886729     -1.22076169698292      0.20951400273340
  C   1.16338416784574     -2.00910733740442     -0.39014224157913
  C   -0.11953601878918     -1.62912270126321     -0.67453005705433
  N   -0.92720529285902     -2.35631828891355     -1.50340372208480
  H   -0.57963964526052     -3.23877821983723     -1.83963170506958
  H   -1.91367191626661     -2.34411172334069     -1.29660268016555
  C   -0.72953024542091     -0.39886959667979     -0.12009558228420
  C   -1.86436602259009     -0.47407359726859      0.62970534914457
  N   -2.38653106208394     -1.73721154031785      0.96932119780651
  H   -3.09898107281169     -1.69467162562505      1.67978423648210
  H   -1.67653264473637     -2.40675349289378      1.23056956236721
  C   -2.64151409369088      0.65731864318306      1.06717627294923
  C   -2.73777466168615      1.86777684123632      0.47586779479530
  C   -2.04903139372429      2.31326403193900     -0.69975179534600
  C   -0.87179363408032      1.85125564545798     -1.15592860935079
  C   -0.05126605476287      0.84375858728849     -0.47659981689140
  C   1.26779703132493      1.06547994013885     -0.27377693131451
  H   1.64748239225982      2.04607030978405     -0.53731205442069
  H   -0.47018281504229      2.27963366667630     -2.06830053870456
  H   -2.51620666959604      3.12437056340438     -1.24690620752098
  H   -3.46085874563067      2.55847689628158      0.89360558967160
  H   -3.30150299132401      0.47076727988500      1.90862946933420
  H   1.45911886948617     -3.01276219200094     -0.67979353233636
  H   3.03521813542215     -1.75744580054381      0.57274287027923
