29
Coordinates from ORCA-job ./opt_b97-3c_parallel
  N   -5.19479931434088      0.24933010037593      0.42271800744187
  C   -4.03691191197066      0.21876806222586      0.28539770639716
  C   -2.64542799681782      0.16519974452361      0.12048732547295
  C   -2.03739197188736      1.12884795945215     -0.74836091767999
  N   -0.78713642554646      1.52225305543430     -0.73395379420396
  C   0.26845582948340      1.01422910295510     -0.11121844381615
  N   1.14997953805294      1.86863077514339      0.35299291864628
  C   2.42811030942551      1.62845560648178      0.65420833258522
  N   3.29275968689618      0.78609240615289      0.09466348111964
  C   2.93421011198415     -0.35688504935889     -0.48295482482434
  N   3.93184183076174     -0.97045220841505     -1.15974210668566
  H   4.86070558019519     -0.61849012044942     -1.01462182670904
  H   3.82985734871807     -1.92029527583823     -1.47044399621597
  C   1.67655101524417     -1.02572235568375     -0.38908371981966
  C   1.67325790794972     -2.39323095662095     -0.71158905933740
  N   1.70685049243767     -3.52540726018613     -0.98801116217410
  C   0.43845551869934     -0.44611887085610      0.01275317956661
  C   -0.59170122275301     -1.24005481793360      0.46686056523302
  C   -1.95312483965466     -0.93353780536753      0.67158414910711
  N   -2.66259130520355     -1.82400720976524      1.41027956411610
  H   -3.66752866424818     -1.79606504614089      1.40617179473956
  H   -2.24041404396409     -2.69840938066911      1.66043695386909
  H   -0.31921235838078     -2.25978219113784      0.71016626956679
  N   2.95268230512421      2.45657797136541      1.58865595165478
  H   3.95196856505644      2.48084127077194      1.67835006490239
  H   2.43413676227677      3.28373125118123      1.82122173371621
  N   -2.83272462861006      1.75486190271195     -1.64999732080668
  H   -3.82796827528930      1.62516756388376     -1.62520822362761
  H   -2.48236971054937      2.60331442104999     -2.05609396573200
