24
Coordinates from ORCA-job ./opt_b97-3c_parallel
  N   5.15740637058304      0.53199580985787     -0.18833516091146
  C   4.00300244780742      0.44715271540312     -0.08792057868616
  C   2.59531569529694      0.37376298406250      0.03580155773116
  C   1.95282111667032      1.37905538109102      0.80754281433047
  N   0.69310755418205      1.65960492954272      0.82830390533704
  C   -0.30935301653485      1.13919192474738      0.09529083331131
  N   -1.09432276190137      1.98980679964268     -0.50422090789317
  C   -2.38441566085503      1.87937688623277     -0.80135425753506
  C   -3.30546809707917      0.99298060834148     -0.30372062739234
  C   -3.01435088259849     -0.24118325754378      0.32216131443350
  N   -4.06491032475305     -0.95612639739922      0.80179486132278
  H   -3.94635205407957     -1.92715916901401      1.02763282125145
  H   -5.00214441024308     -0.66761715151325      0.58910511193250
  C   -1.74879270833172     -0.84776920596951      0.37575599718639
  C   -0.50971397440190     -0.30678403374255      0.06391240013140
  C   0.59854372418573     -1.13199976787440     -0.29948401145707
  C   0.28369556011754     -2.46965652413811     -0.64727502515639
  N   -0.00803232720814     -3.56318576006054     -0.91156896602272
  C   1.94341689413856     -0.77170982081562     -0.40991085320798
  H   2.58428144545226     -1.53322001731714     -0.83365225901438
  H   -1.74786012792905     -1.89864264050625      0.64033126466415
  H   -4.34810566361627      1.21730822391365     -0.49160135477910
  H   -2.75314944857461      2.65835224089486     -1.46032915470345
  H   2.57863418407074      1.95909696236466      1.47944633712748
