33
Coordinates from ORCA-job ./opt_b97-3c_parallel
  N   -0.67919910237450     -4.13679001924632      1.69937306263041
  C   -0.92248928212221     -3.10932921367835      1.21333863120327
  C   -1.19945610877231     -1.86393107540970      0.59713629582665
  C   -2.52828317793840     -1.54834631452149      0.45719360816631
  C   -3.15349027935899     -0.45855260040375     -0.16034124772218
  C   -4.55002941006440     -0.55775556929930     -0.35412702502160
  N   -5.69648161070721     -0.58309989775236     -0.54742766356432
  C   -2.54594290762984      0.73830662280382     -0.59270031677799
  N   -3.30555368186775      1.64009952962945     -1.23471094642049
  H   -2.94989803493634      2.55445467485874     -1.45568915825387
  H   -4.29153476191954      1.48025723161160     -1.35350552257858
  C   -1.17852561060905      1.10347317282130     -0.32183376771810
  C   -0.88096847510225      2.45265109742958     -0.64109986068655
  N   -0.72247716307770      3.54644745396012     -1.00179431878052
  C   -0.10147431237662      0.34019893279306      0.14135821342731
  C   -0.04181672872478     -1.11483896126480      0.13181012824660
  C   1.07829296833170     -1.82554571459008     -0.18767665484789
  C   2.36719780934640     -1.39804857302504     -0.60434194384228
  C   2.94677532192141     -0.14788104105844     -0.33972134879422
  C   4.27321209153010      0.03893992548944     -0.76882495586155
  N   5.37460897912250      0.16265221911480     -1.12661145704299
  C   2.37856983683920      0.87593897450522      0.48045355692799
  C   0.99987224987762      1.05834552161794      0.72471953516185
  C   0.67139391577539      2.13974951391808      1.56746295653692
  N   0.48070411673736      3.01811015496405      2.30722471805858
  N   3.23123529622123      1.77739939542659      0.99560278786835
  H   4.21707278440223      1.71987979102044      0.81244136560905
  H   2.88968017626175      2.60069019985798      1.46153327130733
  N   3.10228955838581     -2.32777531331164     -1.24625449134855
  H   2.71363589605233     -3.22560633331219     -1.46360590161044
  H   4.05401487222939     -2.15296389437180     -1.51774732392727
  H   0.95796486674544     -2.90086508064608     -0.18089729960263
  H   -3.21272410919778     -2.29726631093211      0.83174691933162
