27
Coordinates from ORCA-job ./opt_b97-3c_parallel
  N   5.71197757747156      0.35221019765135      0.83255120421020
  C   4.57038507519257      0.30038685143277      0.62818432510351
  C   3.17615794539599      0.23176309764981      0.38593078491942
  C   2.36285943852389      1.20587209145864      0.94361872586781
  N   1.11596861982117      1.47050237979917      0.60137152494567
  C   0.15700785552193      0.78796942553036      0.05278858470589
  C   0.15554736868065     -0.67258547032202     -0.02463893741045
  C   -0.91056801693808     -1.48115191637401      0.22847019252214
  C   -2.28375256523917     -1.16715307677993      0.43205386650619
  C   -2.89748637308215      0.04679646673426      0.05079147522557
  C   -4.30584347369354      0.09573275408319      0.16554100932922
  N   -5.46094375994262      0.06102868356390      0.29289578022760
  C   -2.26416432538907      1.17848813655573     -0.48428271028770
  C   -0.93367963389404      1.52780448410091     -0.53609016667981
  C   -0.60331566111075      2.79955886346153     -1.06631654724583
  N   -0.33671634252903      3.83311230105940     -1.52291431614366
  H   -2.94366101772882      1.93474364348028     -0.85369755599156
  N   -3.05088024265734     -2.15747124052906      0.91849787180588
  H   -4.05019122368210     -2.05892766045222      0.98434049549468
  H   -2.65899008925725     -3.05652836755458      1.12834607447086
  H   -0.69786794654549     -2.54331338840708      0.23289048223138
  C   1.38967569492538     -1.26906731896252     -0.54228328260165
  C   1.20061118343220     -2.44237499477900     -1.31700792754527
  N   1.02251201273464     -3.41673151996897     -1.92409827669085
  C   2.68701355760505     -0.85012196567307     -0.38203827142042
  H   3.43865335256735     -1.47264377230020     -0.84773536786994
  H   2.79193047151562      1.88823814944159      1.66788038191953
