31
Coordinates from ORCA-job ./opt_b97-3c_parallel
  N   -5.72938651122948     -1.11305279545986      0.02376478598172
  C   -4.58098456105697     -0.94512916063751      0.10307747326031
  C   -3.19578983924799     -0.67751568885143      0.16675248917993
  C   -2.38312470097666     -1.66396111324885      0.72694544600969
  C   -1.01778915486828     -1.79000057375598      0.77835813606899
  C   -0.00226265376801     -0.91754005017887      0.33990483835510
  C   -0.24631656318746      0.51655436899634      0.25676155967620
  N   0.65729731522754      1.40609666873848      0.64419170735861
  C   1.96866721518721      1.42473470458445      0.60307437447730
  C   2.81469904503851      0.52161684882143     -0.11066101207880
  C   4.11058013779179      0.95338508450606     -0.43123181111230
  N   5.19209875861598      1.30083858357571     -0.69228544963906
  C   2.48468859868343     -0.82293185150879     -0.35904206806812
  C   1.25962151629542     -1.46977667188728      0.03044415998825
  C   1.32098426029183     -2.87998609149655     -0.02408075877568
  N   1.42993293624425     -4.03618594162624     -0.10178778348184
  N   3.41426878801890     -1.59118610648240     -0.95442270529958
  H   4.33350196508028     -1.22903141976728     -1.13872990976626
  H   3.26803825230740     -2.57739225863079     -1.07919919050326
  N   2.54342820425312      2.45230005103118      1.25879374797350
  H   3.53376126726645      2.61039827225182      1.21031441297972
  H   1.95190399690626      3.21109466323804      1.54701034065668
  C   -1.45336978375964      1.09827555943708     -0.20700445722315
  C   -1.33071569689701      2.47595891253830     -0.51569106165252
  N   -1.34162783809730      3.59867185165796     -0.81878764050717
  C   -2.76894371876434      0.57299723075080     -0.35141514052787
  N   -3.69010377297522      1.35129556190146     -0.94714279045254
  H   -4.65805830118601      1.07955960790303     -0.95044278030868
  H   -3.46806626273770      2.29249665857702     -1.22203960714839
  H   -0.67453264131664     -2.74471092269310      1.15218050722939
  H   -2.92732000774092     -2.51454998888441      1.11621466624835
