25
Coordinates from ORCA-job ./opt_b97-3c_parallel
  N   5.12618710296659      0.55011974225953      0.62723105221260
  C   3.99485015202823      0.45764328840831      0.37636302826973
  C   2.61663492936916      0.38625369655948      0.07535199621424
  C   2.05632904349366      1.40864728234014     -0.74731372240336
  N   0.81243447771600      1.67861664378815     -0.91291080328046
  C   -0.28859463334402      1.19321473806644     -0.26384431887159
  C   -1.16210487180328      2.13793110887229      0.23060637072889
  C   -2.50925810079591      2.00407394492496      0.58530732120907
  C   -3.37005552069333      0.96611843851512      0.37280080908067
  C   -3.05945241500938     -0.29283538273306     -0.19951463417905
  C   -1.78113192974534     -0.80713587449936     -0.41761517390041
  C   -0.52065393195897     -0.23911269040006     -0.21170174111575
  C   0.58234461010515     -1.10796863933858      0.07485530478939
  C   0.25988088036540     -2.47242156410059      0.28433962062880
  N   -0.02250534065693     -3.58875840839010      0.44562612754021
  C   1.91818356511798     -0.78054595224784      0.34055808279626
  H   2.50461471454931     -1.58825074935451      0.75864464736273
  H   -1.76428137596867     -1.85834300839857     -0.67866072793711
  N   -4.11437234969847     -1.09929914214273     -0.50089979348741
  H   -5.02560555412487     -0.87216735248609     -0.14754449215719
  H   -3.95442099374994     -2.07153785193684     -0.69428825751205
  H   -4.40847272777917      1.13014910188720      0.63364734459424
  H   -2.95507891859570      2.89504679057178      1.01115065000354
  H   -0.75792385307345      3.14226747075211      0.26229904699570
  H   2.75079443288099      1.98057702807711     -1.35795255957955
