31
Coordinates from ORCA-job ./opt_b97-3c_parallel
  N   -1.07844889388760     -3.41734037524146     -1.16016632694751
  C   -1.09819222637021     -2.30922808271245     -0.79182652130098
  C   -1.20248544725255     -0.97910689789684     -0.34739949726702
  C   0.05058410551313     -0.34786676850129      0.02935148002396
  C   1.04663838259045     -1.21766905658209      0.42446993746600
  C   2.44967740551039     -1.09790110871901      0.57168458834940
  N   3.06539460903210     -2.20004742323382      1.13463150704014
  H   4.05319398646282     -2.29268230237965      0.97303259247527
  H   2.57333197410037     -3.07341102779607      1.05773705930738
  C   3.24334545251680     -0.03243650127977      0.21133329714023
  C   2.80023172210245      1.19187582049061     -0.31497820820295
  N   3.80911620011199      2.08314271741628     -0.66356568627480
  H   4.67181800101898      1.66069948300720     -0.96152122899435
  H   3.52859315948270      2.83359071877656     -1.27189317455729
  C   1.50010252505120      1.65060315197433     -0.43130057549372
  C   0.23862733516271      1.09729113381890     -0.09462541855895
  C   -0.78757785968990      2.02556457539099      0.04859771581805
  C   -2.16047451533642      1.89388046588879      0.30805929956455
  N   -2.82396794921906      3.08157764325599      0.57309596613011
  H   -2.26631189367144      3.81356507567252      0.97831957630862
  H   -3.72442265847612      2.99499906485431      1.01146577316796
  C   -2.93528731742138      0.74813572807205      0.24827096495209
  C   -2.53152865629965     -0.51665669003991     -0.18702990673484
  N   -3.53767038185221     -1.39204987225784     -0.48312864693788
  H   -3.33801157462779     -2.37344289795300     -0.56904046583191
  H   -4.47616563140068     -1.14831688747282     -0.23044878545588
  H   -3.99593422381428      0.86978364704324      0.43636740044317
  H   -0.45448068247254      3.05643640911639      0.00837960518037
  H   1.43073669709379      2.67247425970637     -0.78922278497265
  H   4.31316339999611     -0.14088407151445      0.34913282249186
  H   0.69303526794609     -2.21984479620143      0.62980057117357
