28
Coordinates from ORCA-job ./opt_b97-3c_parallel
  N   -3.88251008335475     -3.17820719726302      1.29771219498592
  C   -3.14316100333572     -2.37162888264922      0.90895436160391
  C   -2.25581365636555     -1.37158799374185      0.42785286569532
  C   -2.84628318816866     -0.38607724090222     -0.44675541689611
  C   -2.32910890750024      0.81322493750572     -0.81005932907433
  C   -3.07466338726482      1.62850545471754     -1.70094626665814
  N   -3.65879005881155      2.32749320408215     -2.42100267341306
  C   -1.13222587779655      1.41947835931174     -0.24166135023714
  C   -0.07253499628855      0.77924087626308      0.26948640229658
  C   0.96639733383852      1.57848628428715      0.97913825971207
  N   2.22439391327360      1.62096712473736      0.68405342542397
  C   2.87591890300599      0.78060513076316     -0.15165742388095
  N   3.96567705477337      1.32541217835769     -0.73311662125798
  H   4.62616951411708      0.74001925516339     -1.21487773179545
  H   4.29153577742818      2.20530609471822     -0.37660286001550
  C   2.58414932814248     -0.58538578149552     -0.32576495972032
  C   3.59137236046217     -1.37985739198044     -0.91074711847738
  N   4.45513055829399     -1.98670748952852     -1.40150272442224
  C   1.38755770365974     -1.22523171608164      0.07990499853580
  C   0.15839667505419     -0.67129552851612      0.31793449605163
  C   -0.92381053341644     -1.52444768995606      0.70589267811025
  H   -0.65306355625706     -2.43163001373352      1.23449965018192
  H   1.44104458934840     -2.30599459625026      0.12299594559856
  N   0.52103817779169      2.34214044148024      1.99314625123523
  H   -0.43358608316802      2.28559416492211      2.29241890325695
  H   1.18544383672610      2.82384747588478      2.57442422312480
  H   -1.13774557287104      2.50253245973022     -0.21292367084662
  H   -3.81714960941668     -0.64741629764135     -0.84623136650793
