27
Coordinates from ORCA-job ./opt_b97-3c_parallel
  N   -0.02665612363462     -3.66885257292415     -0.66770949735206
  C   0.27636154501858     -2.55198438500861     -0.52020612949643
  C   0.69273972779612     -1.22177571614192     -0.33963807515529
  C   -0.33086257756733     -0.26273354717853     -0.08350274356835
  C   -0.09538536993060      1.15931551521979     -0.37058244745796
  N   0.94498906518812      1.82866432680466      0.06256947355959
  C   2.15056336196139      1.37601881373908      0.40492431397081
  C   2.74945202673868      0.16748351869626      0.04972881527134
  C   2.10027696201711     -0.99923801249021     -0.35041298667551
  N   2.88932740166099     -2.04355290820656     -0.73713608142781
  H   3.86565630682725     -2.01018144637764     -0.50908574778209
  H   2.48776188417951     -2.96450665031481     -0.78653127857572
  H   3.82642663267625      0.10799443598583      0.15359304092458
  N   2.87843169788868      2.27586260800574      1.13355808664610
  H   2.57703453972856      3.23244930798763      1.07115865317560
  H   3.86542583803686      2.12846615631739      1.23887828523132
  N   -0.96390895854883      1.83775515676214     -1.12386272305855
  C   -2.27479050304734      1.80391743661634     -1.11731914972320
  C   -3.13757351830018      1.12116057298220     -0.27581861154623
  C   -2.79534733964175     -0.01632884671396      0.46259592062733
  C   -1.55139004565125     -0.67334654917723      0.42957760370775
  H   -1.55149608052628     -1.66763773883285      0.86108435866873
  N   -3.77553142355680     -0.60166392869414      1.22623891541467
  H   -4.72761642700961     -0.34739689593451      1.03047274129738
  H   -3.65559895822521     -1.56802607728410      1.47472781380064
  H   -4.18239554010664      1.40517718529608     -0.30892696313951
  H   -2.73662805406742      2.43782796407081     -1.87056432873749
