29
Coordinates from ORCA-job ./opt_b97-3c_parallel
  N   -5.34797964307008     -0.06523706026257     -0.04612270262759
  C   -4.18372641931068     -0.05081799226996     -0.02388395832859
  C   -2.77741101357841      0.05072540847001     -0.01223461994002
  C   -2.05173641171928     -1.09415060606680      0.27228952360893
  C   -0.68790972695112     -1.35109581587263      0.29351458232967
  C   -0.38645404653308     -2.69998205436123      0.61730090174320
  N   -0.14722319854344     -3.80636079938738      0.88525450112559
  C   0.44684780340036     -0.50031649526090      0.00115803384829
  C   1.63178425775397     -1.15561159158630     -0.26107241358837
  C   2.97509088517592     -0.71847746239597     -0.39161674333750
  N   3.53935620277197      0.44529593640766     -0.11634258903873
  C   2.83458314511617      1.53308274356792      0.20942577614371
  N   3.63754055095838      2.59819947455717      0.50729494443129
  H   4.60847305276750      2.38627025081024      0.65254134926699
  H   3.26181481718965      3.37290284637587      1.02184136843543
  C   1.45622546489267      1.77541773873274      0.20406922410770
  C   0.33311723633415      0.95813282255811      0.00613033423280
  C   -0.86594698686201      1.66937046709086     -0.18637706561853
  C   -2.21291351539435      1.33757147200661     -0.25834371106949
  N   -3.08097541601658      2.33474671658691     -0.57840380179317
  H   -2.76438518579469      3.28593838936429     -0.57893413599411
  H   -4.07020958495017      2.19023527925599     -0.47337102819988
  H   -0.69596394437660      2.73137806115581     -0.32319714204319
  H   1.21332385724465      2.82074177036583      0.35021013359610
  N   3.85177720430068     -1.66105862836006     -0.82353928323344
  H   4.82950445517803     -1.44305032770012     -0.75373184259577
  H   3.58885118753876     -2.62799932280178     -0.86223500121935
  H   1.53458908814346     -2.22628630429269     -0.37149045909114
  H   -2.66271691456752     -1.95770411289108      0.49932807294343
