25
Coordinates from ORCA-job ./opt_b97-3c_parallel
  N   -1.83227587517347     -3.55420985651788     -0.61035464081438
  C   -1.62929806471279     -2.41881895087260     -0.45615622697933
  C   -1.39839702104852     -1.03506722737612     -0.27082414238149
  C   -2.50676810318037     -0.23361285043112     -0.58351205498291
  N   -2.75588957726364      1.04483767064888     -0.41222804625255
  C   -1.82607270565814      1.84927578915256      0.15888098650094
  N   -0.50929197395911      1.77976538499002      0.20605498625317
  C   0.32810181571295      0.75370319803011      0.00291817643564
  C   1.63182095700289      1.16045274538554     -0.31973336045504
  C   2.87129902801032      0.52922500215492     -0.25281431101182
  C   3.12889550391661     -0.75133025960309      0.27756053909911
  C   2.18824175651194     -1.66578326108360      0.66673763323977
  C   0.79854077742213     -1.63845167066208      0.56071205691429
  C   -0.06985831522394     -0.64483550784755      0.11991826963853
  H   0.32239254937882     -2.57876900129556      0.80438768565857
  H   2.58474266193175     -2.59422580069724      1.06090887828303
  H   4.16832432400809     -1.04459057912693      0.36114083543784
  N   3.95476071030709      1.23185213290506     -0.70786896066184
  H   4.87109145663095      0.93536654331632     -0.42527558886851
  H   3.85884020156949      2.21873999509095     -0.86424438363918
  H   1.66170456708224      2.20936496276408     -0.59151560229188
  N   -2.36007826401794      2.95601763774203      0.71750809964069
  H   -1.75557052238158      3.68959728809650      1.03574203839116
  H   -3.34265671316642      3.12178768847170      0.60602693804375
  H   -3.34393847069928     -0.78260008833395     -1.00552245149772
