28
Coordinates from ORCA-job ./opt_b97-3c_parallel
  N   -0.49912717850477     -3.97597074799858      1.41996934245768
  C   -0.11931051732586     -2.94010551703301      1.05857063623062
  C   0.36918852361246     -1.67504634067312      0.64130864125612
  C   1.74354765375199     -1.48893379930857      0.69301537048508
  C   2.55205637747935     -0.47174741232504      0.20406309338626
  C   3.94738742612505     -0.69109080300953      0.28280482443977
  N   5.10308218371710     -0.81646949648620      0.31608404286554
  C   2.14870272760161      0.76347549691749     -0.39269311792023
  N   3.11385860556589      1.52849707990805     -0.93289310026274
  H   2.90769483644775      2.45625706735663     -1.26106589701034
  H   4.08060008374227      1.26649971321978     -0.84670231503108
  C   0.82833074745129      1.27786815796661     -0.38032881467646
  C   0.69630628770168      2.62940371118564     -0.77575107089983
  N   0.68529068355479      3.73240629979208     -1.14366859135819
  C   -0.36869344858450      0.67773680950040      0.08665235408361
  N   -1.32532007947347      1.49483412421744      0.47431868585342
  C   -2.63422544246270      1.25665238308802      0.61855400264806
  N   -3.41936993825008      0.40786463187641     -0.05049767083269
  C   -2.87307572491422     -0.65796858939809     -0.62965081621260
  N   -1.72308712261295     -1.28569520281968     -0.33158594142268
  C   -0.59870468932126     -0.77851242179123      0.10631252936001
  N   -3.61604436007347     -1.27712096180955     -1.56457410334230
  H   -3.36965894846057     -2.21252788139243     -1.83215418613862
  H   -4.55540921638253     -0.95733957236692     -1.71547486998031
  N   -3.25972390362438      2.07620270358933      1.48253456633076
  H   -2.77069858207594      2.88393253115585      1.82212361961457
  H   -4.26231238776675      2.05759861463056      1.51933532712136
  H   2.28874494068220     -2.32058947459239      1.11807725125521
