23
Coordinates from ORCA-job ./opt_b97-3c_parallel
  N   4.81582092985622      0.85719978738349      0.19603961945200
  C   3.68333936164214      0.68912193503523     -0.01611940235203
  C   2.31395062643158      0.43827284789957     -0.22335302395786
  C   1.56853337506138      1.36167315979120     -0.98485243517058
  N   0.27790128270113      1.51509769024566     -1.07981465039366
  C   -0.65939988670302      0.69432507582493     -0.55305555911368
  C   -1.81434361558618      1.19566407451283     -0.01353453402992
  C   -2.97028965859056      0.43894980752796      0.33798765781369
  N   -3.38934064290742     -0.70629707579190     -0.19699842620710
  C   -2.64807634840795     -1.42753919170973     -1.03671708070623
  N   -1.35250118589138     -1.54902957691512     -1.15509227688231
  C   -0.44291239657715     -0.76507894886668     -0.56104872865903
  N   0.61090026106952     -1.32186440682541     -0.02746692149677
  C   1.76156223308780     -0.74606518793791      0.33422187959878
  N   2.47146471940302     -1.44182220037773      1.24335175135887
  H   3.41252454353780     -1.17313625820105      1.47159291791610
  H   2.18238487242058     -2.38322197023324      1.43881872691808
  H   -3.22455832879298     -2.09273925796099     -1.67284757729844
  N   -3.82102511432478      0.98747376983120      1.23292645766461
  H   -4.72899532286454      0.57121170713939      1.33766941023149
  H   -3.66212413949665      1.90089441070213      1.61324907556096
  H   -1.84232946795965      2.26623794243267      0.15133100899129
  H   2.15199045959038      2.09237338779297     -1.53713583373961
