25
Coordinates from ORCA-job ./opt_b97-3c_parallel
  N   -4.33250722738132     -0.79996726357241      0.52998579970928
  C   -3.29828586841109     -0.35392944898355      0.23718057297467
  C   -2.00933083283117      0.12908332328229     -0.08210399472052
  C   -1.93712809363518      1.40894876317442     -0.73363235937126
  C   -0.89719579302366      2.27341944599998     -0.73142452016533
  C   0.36099660799564      2.08749710085735     -0.08729871211288
  C   0.97091784957388      0.92056614369493      0.22495094488580
  C   2.21411461207330      0.91576264620697      1.00462178491979
  C   3.34225865678306      0.25518507938237      0.68709569995234
  C   3.53658639765780     -0.64819667410528     -0.41005360900078
  C   2.57303300062121     -1.36934681391231     -1.02918065284874
  C   1.17843357374019     -1.38159375254599     -0.71644685244965
  C   0.44711173834589     -0.40192171602731     -0.12839706713525
  C   -0.94585338613996     -0.68478208512917      0.26557993346366
  N   -1.13818185876904     -1.85926439019040      0.91898842015263
  H   -2.02184687224041     -2.04459306086626      1.36479711992690
  H   -0.33471061355633     -2.33173446258030      1.28941209486957
  H   0.64402905992775     -2.27884509606999     -1.00773880412073
  H   2.89284477398682     -2.09321605900471     -1.76957501282466
  H   4.56392808323758     -0.83878996550124     -0.69688661918871
  H   4.20923369742213      0.42997547156095      1.31518048804368
  H   2.22502857188631      1.54182298066918      1.89094712913098
  H   0.90186720632663      2.99312004566070      0.16893509787360
  H   -1.06357038052149      3.24065471680265     -1.18893986089462
  H   -2.86180415916917      1.74001504629984     -1.18857016457284
