28
Coordinates from ORCA-job ./opt_b97-3c_parallel
  N   -2.17857542956899     -0.47847331645147     -1.73974781741412
  C   -1.54114300135841     -0.87445863482403     -0.60710287740651
  N   -1.65898766838820     -2.10475151979162     -0.21615075898410
  C   -0.86290280856896     -2.65945854816150      0.73923207638388
  C   0.42498073750877     -2.37859270897828      1.06826932951726
  C   1.23367925236480     -1.31832264427267      0.53891647482534
  C   0.70819726714668     -0.15216530846691      0.07024823847769
  C   1.54181684303292      0.87430984266196     -0.60735158027348
  N   1.65960970958544      2.10479960355040     -0.21700275707307
  C   0.86340528621071      2.65998640144629      0.73800152530764
  C   -0.42451874221071      2.37928439175820      1.06702122775842
  C   -1.23314809276198      1.31874511642297      0.53810287732301
  C   -0.70760504461055      0.15235444354532      0.07008453291812
  N   -2.61945663345672      1.55294273069060      0.46437781670114
  H   -2.91175461046016      2.35205481132173      1.00307265966932
  H   -3.18065446888334      0.74908944652054      0.70437430017234
  H   -0.90898774000180      3.07147524280925      1.74807606534909
  H   1.31504520773581      3.52150553100431      1.21927912219479
  N   2.17939347715497      0.47775703515165     -1.73971600314497
  H   2.83352957872076      1.13115392522822     -2.13796612816106
  H   2.41187986731091     -0.49806043516986     -1.81896770980397
  N   2.61999518724319     -1.55256629089337      0.46548160175261
  H   3.18116999519993     -0.74859449574220      0.70513427250341
  H   2.91222212381691     -2.35140561245392      1.00461933178736
  H   0.90936520929979     -3.07044074442566      1.74973237610008
  H   -1.31460382162660     -3.52073403872442      1.22088803231486
  H   -2.83266625002484     -1.13206861831309     -2.13774699228276
  H   -2.41105711391003      0.49730379575832     -1.81951142471318
