18
Coordinates from ORCA-job ./opt_b97-3c_parallel
  C   -2.40427825747270     -1.08972654374940     -0.44659343260298
  N   -3.02626314250714     -0.00009632911144      0.00001325328431
  C   -2.40436587676049      1.08957939712939      0.44659765932013
  C   -1.07546466051216      1.48361174151118      0.40595813852523
  C   0.01277484760684      0.73062584137822     -0.04260734515830
  N   1.07449843951084      1.32244556376033     -0.58882426802529
  C   2.31770198464585      0.91186902822709     -0.69713221147304
  N   2.99540567757743      0.00012856495842      0.00027992125715
  C   2.31767563753171     -0.91169646023448      0.69752825010959
  N   1.07452047390815     -1.32239891961182      0.58898292112561
  C   0.01281738493913     -0.73062326334204      0.04271509302602
  C   -1.07536033962183     -1.48366422480538     -0.40595034648218
  H   -0.86958934864545     -2.52418033705257     -0.62807001938801
  H   2.90754980513795     -1.46871824518194      1.41972485027842
  H   2.90765167892524      1.46890744954953     -1.41925519436622
  H   -0.86977779733671      2.52415723372287      0.62802105061663
  H   -3.09016664980253      1.84036092408176      0.82998498054840
  H   -3.09002483002415     -1.84054364522972     -0.83000686479550
