31
Coordinates from ORCA-job ./opt_b97-3c_parallel
  N   -0.71748492421342     -3.91258594904520     -1.35995088157809
  C   -0.93526495946655     -2.83577482625395     -0.98416076965075
  C   -1.24788171303644     -1.51939421360988     -0.54948326871779
  C   -2.58918586303821     -1.16949961939155     -0.62083002836768
  C   -3.26518646809793     -0.05669025273232     -0.14944924607873
  C   -4.67430127472488     -0.06039420239957     -0.25571196843418
  N   -5.83450912022889      0.00021801370779     -0.30905030570525
  C   -2.66893851981033      1.09471169129072      0.44738364777193
  C   -1.30156529441754      1.37905871354534      0.47836618804646
  C   -0.16484588113904      0.66845370535147      0.09243323136849
  C   -0.13809095234495     -0.78672119273152     -0.01920900029489
  N   0.87903662745834     -1.53022409987802      0.33957628394638
  C   2.16390532221866     -1.29205547561151      0.54550512432190
  C   2.91972065499155     -0.21353848185534      0.02435296567106
  C   4.31513120924519     -0.35802825114700     -0.01843986937031
  N   5.47447190377917     -0.47398779343300     -0.04822321842923
  C   2.36815539410129      1.03426171126924     -0.35467264466815
  C   1.00632831818627      1.43340737729717     -0.19828033036909
  C   0.78704968771144      2.80968236067756     -0.41562465035276
  N   0.65647044201440      3.95085448821357     -0.60957777854244
  N   3.22584966926097      1.94908015346743     -0.84281255882841
  H   4.21149405191049      1.75736294332581     -0.87917444378240
  H   2.92472182513891      2.88593233857520     -1.04582177016242
  N   2.79218810731561     -2.24657634161835      1.25917811284968
  H   2.31004975667499     -3.11761886481090      1.39315574501162
  H   3.78849829401032     -2.22798543982573      1.38589668583142
  H   -1.09200774812648      2.38948940058966      0.80556603845242
  N   -3.50007727331761      2.02512852674625      0.96923168049245
  H   -4.49445998109266      1.95230478404515      0.83967912899791
  H   -3.14323043269265      2.92056510123369      1.24675519984578
  H   -3.22301960046996     -1.92741398929366     -1.06051530347610
