24
Coordinates from ORCA-job ./opt_b97-3c_parallel
  N   -3.45049651561637     -1.73617950697486     -0.65397956614983
  C   -2.52829986641957     -0.81399582473940     -0.21598471689914
  C   -1.19051923711024     -1.15530480915192     -0.27933096295797
  C   -0.01361098332657     -0.41877097203265      0.01596131576906
  C   1.15090538385240     -1.14955578940992      0.21676107700793
  C   2.51227269048120     -0.77044780367112      0.20900882472302
  N   3.09509594462805      0.35204110145903     -0.20564097964956
  C   2.40154559567423      1.43078158975633     -0.57470891142476
  C   1.07479395155849      1.77421401918152     -0.48291684022187
  C   -0.03528846833709      1.04856645340015      0.02261093494436
  N   -1.04491291770860      1.78679095516201      0.44231966554056
  C   -2.31814648326419      1.47445567227897      0.68973128368243
  C   -3.05889324021045      0.39605970730249      0.30435667951087
  H   -4.12841829433963      0.44380474466496      0.47077973907469
  H   -2.84841559939183      2.25550081895055      1.22900447118168
  H   0.83606286842912      2.79903020773866     -0.73787880456871
  H   3.04086887619785      2.21482933472635     -0.97289438526803
  N   3.40571469041887     -1.70683750770973      0.64848312883647
  H   4.36662941306855     -1.53450201487313      0.40967260623204
  H   3.12365492215400     -2.66441021723015      0.74528652940227
  H   0.98885877266211     -2.21077600075793      0.37411715161218
  H   -0.99473772714221     -2.16752510458655     -0.61782622996447
  H   -4.39936638979543     -1.62046395134716     -0.34596159343881
  H   -3.15762366376239     -2.69512104693644     -0.71862701907476
