20
Coordinates from ORCA-job ./opt_b97-3c_parallel
  N   3.18216272862954      0.62416262819727      1.33971663894177
  C   2.35756280838178      0.25838693453366      0.33870431608367
  N   2.76135247454906     -0.80463517779606     -0.38083526311003
  C   1.90761639019763     -1.50484798281209     -1.11003170992710
  N   0.59178628563016     -1.60020194038184     -1.05316592355324
  C   -0.20152875398884     -0.71475738910139     -0.45787118221582
  N   -1.32442506837440     -1.08189650697067      0.11450858315775
  C   -2.35760193808974     -0.25818015900616      0.33833425672927
  N   -2.76127073904805      0.80477003383528     -0.38137889560204
  C   -1.90741175373374      1.50490886311383     -1.11050243299300
  N   -0.59159040855612      1.60026802785663     -1.05342451592592
  C   0.20162716786903      0.71488397608574     -0.45790935828301
  N   1.32442532969276      1.08208159173501      0.11462419044992
  H   -2.37478621237135      2.18996246077422     -1.81120452038691
  N   -3.18237023841469     -0.62385932590976      1.33924273599418
  H   -3.07452664644681     -1.53808086036465      1.73882392609156
  H   -4.07551569706997     -0.16994861055330      1.39931261075027
  H   2.37510891619120     -2.18997101571340     -1.81058654673585
  H   3.07425171865173      1.53842288429173      1.73919097170061
  H   4.07529752700090      0.17025676158615      1.39998119233443
