27
Coordinates from ORCA-job ./opt_b97-3c_parallel
  N   -4.79341827099498      0.16169828632475     -0.37848686827011
  C   -3.63532975201008      0.19818339527963     -0.24736084934434
  C   -2.24169555933439      0.22382950342880     -0.08352737651508
  C   -1.53393073592250     -0.94729806907764     -0.41677650242393
  N   -2.22181795120991     -1.97631610004541     -0.95064145483815
  H   -3.22608585497834     -1.95193275351392     -0.98358557199641
  H   -1.77819909993905     -2.87093008660793     -1.06382652489056
  C   -0.14103786051099     -1.17508896607813     -0.15519861143849
  C   0.29309471993843     -2.51806490534614     -0.16555160570477
  N   0.58496410874747     -3.64333453160325     -0.20980832452661
  C   0.82768479444302     -0.20569735999516      0.11586411347023
  N   1.98681039305879     -0.57022494738044      0.64768822681762
  C   3.18392720477827     -0.04876488287842      0.45499723373800
  C   3.54308607641864      0.82743690371755     -0.60512312705968
  C   2.63978055296241      1.61219442967542     -1.26671216187570
  N   1.37957762536799      1.90317896232641     -0.93211909798600
  C   0.56665572855697      1.22573395982574     -0.16203808848115
  N   -0.45904867160288      1.85079354875957      0.40753384786983
  C   -1.67879160540690      1.39043917424067      0.54739292967284
  N   -2.50451015564173      2.14299260618689      1.31128360535891
  H   -3.49007863302245      1.95281144962566      1.33617453562747
  H   -2.20411286055062      3.07718034583347      1.52391135262247
  H   2.99511325934289      2.15625468448218     -2.13615984007608
  H   4.58247112325097      0.87942224722766     -0.90226098014861
  N   4.14655424739858     -0.47034692255382      1.31049226641021
  H   5.10701164695511     -0.23882837247230      1.14164256989124
  H   3.95314470880430     -1.28180696048236      1.87027526179520
