29
Coordinates from ORCA-job ./opt_b97-3c_parallel
  N   -0.75808464244132     -4.12995802391702      1.49341546979682
  C   -0.85364164081990     -3.07269630483569      1.02261530506048
  C   -0.96939248395524     -1.77316642723022      0.47292474629427
  C   -2.18758429715562     -1.14559399558076      0.53378411116099
  C   -2.60426979004723      0.09092421221289      0.01268492668189
  C   -3.99919643021765      0.32390606711023      0.00130575739435
  N   -5.13388713386923      0.57466739699264     -0.03933105330780
  C   -1.80122713755035      1.14379244275595     -0.47554326676013
  N   -2.40676154875594      2.22497979218952     -0.99377307064888
  H   -3.40932247664119      2.30531821564732     -0.97089175025277
  H   -1.87908037000610      3.04790576988297     -1.22934387337417
  C   -0.36262458975260      1.19003986661827     -0.36763804228153
  C   0.20261928180005      2.46756526544106     -0.60462197865411
  N   0.59045514864358      3.52846452177659     -0.87849525810197
  C   0.52513765586184      0.15693518662728     -0.09073855470225
  C   0.20339787389841     -1.26772409107827     -0.20924061042566
  N   0.96464678147192     -2.11771798685457     -0.81729187838884
  C   2.20224964379960     -1.97239401696758     -1.31107034902389
  C   3.20089933702454     -1.17895034814551     -0.84285284246295
  C   3.05320632676244     -0.15267209293901      0.13094882035607
  C   1.82513676247931      0.46507923513704      0.44828529800744
  C   1.89029439789581      1.50829977301593      1.39446843154212
  N   2.03086805331665      2.33229675896862      2.20415685213682
  N   4.18121924812148      0.31391801499851      0.69706111611977
  H   5.06245908685337     -0.12931464361100      0.52140237128577
  H   4.16538980261584      1.08790722407918      1.33914686920761
  H   4.19856464665644     -1.35382960135188     -1.22441082164980
  H   2.43617418221579     -2.66628360091894     -2.11055707300642
  H   -2.97816826810400     -1.72423733222146      0.99185609389710
