26
Coordinates from ORCA-job ./opt_b97-3c_parallel
  N   -0.06552798852015     -3.19064399405634     -1.98703890053953
  C   -0.47965113683209     -2.28691996684905     -1.38502377634996
  C   -1.01811768942314     -1.16217516964322     -0.71614811639044
  C   -0.11962004121818     -0.24521120855580     -0.10514363758896
  C   -0.55020753740796      1.16523008440774     -0.04723369098758
  N   0.20128473653348      2.12676689124855     -0.54799149354669
  C   1.52141708834760      2.10869796380682     -0.67206796282527
  N   2.43734995668508      1.47474885966221      0.07918520647836
  C   2.23026455039434      0.30200125682224      0.64186853793665
  C   1.13159748376810     -0.61326311397282      0.38371145625169
  C   1.36637091331065     -1.95662056728351      0.74204458070531
  N   1.62985950961440     -3.01862416424908      1.13765380691716
  N   3.19695927842560     -0.11992707272517      1.47667392847152
  H   4.04527771267776      0.41605311495906      1.51406739582933
  H   3.20870831829641     -1.06376750630396      1.82140152426257
  N   2.03378236511648      2.94452124386745     -1.59762013571654
  H   1.42391543751433      3.61313549620366     -2.03061573492547
  H   3.02176820705934      3.11704252049851     -1.59236674347012
  N   -1.70164485272101      1.50082012374203      0.50241920660056
  C   -2.79813577262585      0.77229115630033      0.62378241963974
  N   -3.24657794217462     -0.23079335085252     -0.16730460255461
  C   -2.41954949462508     -1.03171386306000     -0.79377460581145
  H   -2.90875833041291     -1.77011519511157     -1.42113991488681
  N   -3.65609348112353      1.13779252089005      1.59705933419645
  H   -4.57910451679524      0.74463567612202      1.58256013085745
  H   -3.50118638746335      2.00329223753179      2.08016531554649
