30
Coordinates from ORCA-job ./opt_b97-3c_parallel
  N   -5.20179908300876      0.26085360549638     -0.67534805910170
  C   -4.05825247715524      0.22812032301294     -0.44551250995983
  C   -2.68545560513565      0.17245255058378     -0.17055594453961
  C   -2.11734387522082      1.19782840509577      0.66164254019959
  N   -0.86665552036217      1.56259860751792      0.73868567741010
  C   0.24758723030074      1.02642490055060      0.20675272327363
  C   1.21765581203424      1.91906983290395     -0.18613560051239
  C   2.55318574410915      1.67205533402224     -0.58168378763365
  N   3.34154214905278      0.65130713322190     -0.29172069183774
  C   2.96975337183826     -0.46805158930942      0.33196611818394
  N   4.01993248294203     -1.16441537716305      0.83619435129895
  H   3.90435842807254     -2.11639944307985      1.13622161563707
  H   4.93071686859613     -0.87771934826528      0.52688472207689
  C   1.67341386851327     -1.03377689307106      0.45334600122480
  C   1.63695820010875     -2.37917891421405      0.86093651090010
  N   1.65341683296947     -3.49369868639688      1.20345939526181
  C   0.41793399505441     -0.43110907503116      0.10666783729575
  C   -0.61909413558553     -1.25390904838886     -0.26859544970547
  C   -1.97465985390610     -0.97586941999262     -0.55654970265615
  N   -2.64288730807235     -1.94314367834097     -1.23352589328328
  H   -2.20676555426937     -2.83374047604900     -1.38026051452109
  H   -3.64510426103302     -1.91270555053178     -1.30306956851157
  H   -0.34414465979483     -2.28881220453752     -0.42881511148459
  N   3.16265951358950      2.65008877175126     -1.30299437154810
  H   2.71002886773080      3.53277643202131     -1.44506297168389
  H   4.16347038451042      2.61654645876287     -1.37680620300152
  H   0.89806552418633      2.95356200883959     -0.18566207782945
  N   -2.97790203549184      1.90262171639043      1.44158920671826
  H   -2.64245071793706      2.76692699882266      1.82544317017214
  H   -3.96966435713738      1.78840446378063      1.33784376295529
