22
Coordinates from ORCA-job ./opt_b97-3c_parallel
  N   -2.73762307139759     -2.10930032324477      0.73606073583365
  C   -1.88510935541889     -1.15132563397339      0.28562783676562
  N   -2.48958648290429      0.00001457363955      0.00239195376084
  C   -1.88544140586234      1.15134990882000     -0.28158762240226
  N   -2.73849892807548      2.10932660126228     -0.73098990307658
  H   -3.72171828215739      1.94088232520399     -0.61483487369268
  H   -2.43305552810861      3.06114685453400     -0.80774530774974
  C   -0.54183907669873      1.53964641846317     -0.07876709991891
  C   0.52914892782749      0.71804853821409      0.18317077248170
  N   1.59502402799031      1.21456027738041      0.83633161455654
  C   2.83803048603346      0.79351506151826      0.83500820915091
  N   3.50724778282364     -0.00004067271783     -0.00114456408971
  C   2.83704494375096     -0.79355866736239     -0.83655124462609
  N   1.59402537170286     -1.21455386007494     -0.83646005772199
  C   0.52892492928068     -0.71803989152211     -0.18202795230984
  C   -0.54175332930614     -1.53963200059621      0.08117192151399
  H   -0.35099207048799     -2.60087019331913     -0.02405109139928
  H   3.44879022980251     -1.24095589844413     -1.61632090278814
  H   3.45068329796704      1.24091020562617      1.61406639273832
  H   -0.35094144306164      2.60088473484751      0.02620578674836
  H   -3.72098381108084     -1.94084654311679      0.62112447417411
  H   -2.43209124221839     -3.06112037863750      0.81246049715120
