24
Coordinates from ORCA-job ./opt_b97-3c_parallel
  N   -5.72726693455212     -0.00946156091308      0.61628116539534
  C   -4.58366358807582     -0.00339502092265      0.41191594834252
  C   -3.18996981055831     -0.00506420013334      0.16066266370285
  C   -2.42653784822600      0.99842785680934      0.74168987105506
  N   -1.18786729775033      1.33962202927932      0.43050748596242
  C   -0.25146487841492      0.70355019676509     -0.21443340555891
  N   0.66856381379075      1.45487332773125     -0.85242259031079
  C   1.95469878265490      1.31283044759301     -0.79931380968160
  C   2.72467054876197      0.36273598433561     -0.08479661033816
  C   4.09618472543515      0.63391685800512      0.08934501399583
  N   5.23385577119775      0.80259084142918      0.26781061030680
  C   2.26651330800188     -0.92670642828718      0.27729714378989
  N   3.14771511507473     -1.78816213795465      0.82408728836026
  H   4.11053402760712     -1.53189435662339      0.95854315156907
  H   2.88100286682072     -2.72971455787435      1.03943182135853
  C   0.97089432617905     -1.43667959781667     -0.00196182429338
  C   -0.18031133530176     -0.75470992350806     -0.30198943933890
  C   -1.35204762865924     -1.43010660450630     -0.77303644178726
  C   -2.65641798669231     -1.07444220474745     -0.60972908966825
  H   -3.38911467997069     -1.74230487560491     -1.04362456924385
  H   -1.16882130968464     -2.34985926535818     -1.31541801637618
  H   0.88042170671732     -2.51554546991627      0.05481725501840
  H   2.52253931116986      2.04102584932726     -1.37130028770063
  H   -2.90424666662008      1.63854226618782      1.47449649334805
