24
Coordinates from ORCA-job ./opt_b97-3c_parallel
  N   -5.03437660441877     -1.03236613767507      0.44225098529940
  C   -3.88958587989311     -0.87796118667139      0.32225609497690
  C   -2.48954988616479     -0.68918085014215      0.17995965059023
  C   -1.66627688266318     -1.74475842414337      0.56617318927106
  C   -0.29511686702267     -1.88194378491425      0.42620472169181
  C   0.64826460608815     -0.92719667718694      0.06078959158603
  N   1.83729272866623     -1.33874193224149     -0.40789226122443
  C   3.02341485844062     -0.81029518066113     -0.24205642153008
  C   3.36136283961771      0.23167950599819      0.68545314908559
  C   2.45460209612470      1.13913684185940      1.12475570105272
  N   1.20603997346210      1.35687651475521      0.66104218954278
  C   0.38268541572691      0.51758137290768      0.12025384776863
  C   -0.81308190489065      1.04690528633788     -0.51539921311769
  C   -0.65986239050141      2.29876369693519     -1.16152009927803
  N   -0.53221769542711      3.30892494316698     -1.71996424192559
  C   -2.07748530933391      0.51737608596628     -0.42260773613249
  H   -2.86986601474157      1.12952468721896     -0.83178141429461
  H   2.76809137430399      1.86009489457977      1.87156358231437
  H   4.38922813369218      0.31704375040667      1.01193716913054
  N   4.03764984873003     -1.37745308554640     -0.94051931467341
  H   4.89272143402053     -0.87118070085002     -1.07656792664462
  H   3.79266582098639     -2.06257588882714     -1.63458108542630
  H   0.10693217039323     -2.87611942634433      0.57581496357700
  H   -2.18334332759546     -2.61799669562805      0.94234234765909
