27
Coordinates from ORCA-job ./opt_b97-3c_parallel
  N   5.57485685797177      0.06934526752833     -1.01784039551564
  C   4.43554644285101      0.13155831965076     -0.78767590072327
  C   3.06753133519451      0.16308697501768     -0.45381142212435
  C   2.23747497099355      1.06568816856498     -1.09610741915252
  N   1.00735566721515      1.43953089556555     -0.78500348331614
  C   0.11327254252936      0.79272509260113     -0.06563798732654
  N   -0.88595635010047      1.48015837755737      0.46305282102137
  C   -2.14542134022400      1.12021793049486      0.56586454272912
  N   -2.92397493594457      1.92671682666247      1.32350481675000
  H   -3.92186371389355      1.81533244448586      1.32409772165280
  H   -2.55562614953032      2.83094975821430      1.55792394134317
  C   -2.77802316697180      0.02187487628927     -0.11085303658231
  C   -4.16246363670858      0.10176918022690     -0.32174994794919
  N   -5.31429792506479      0.14783730545211     -0.49827145371156
  C   -2.13354415344221     -1.19074562027462     -0.43989618340341
  C   -0.78820745376990     -1.51608714520740     -0.14728311142569
  C   0.24181390514002     -0.66475047000796      0.16396690703918
  N   1.36207489963069     -1.14499752310020      0.73073486008553
  C   2.59650541005043     -0.73503654033415      0.57912087761901
  N   3.51250701102608     -1.25096844262132      1.42768492020256
  H   4.49329770986087     -1.10110892528139      1.27329343232105
  H   3.23477102623128     -2.02569220307425      2.00235869229160
  H   -0.54607517421921     -2.57133137550671     -0.12078906726566
  N   -2.88600807561624     -2.18769830021112     -0.95908764579545
  H   -3.85580203692228     -2.04624001335420     -1.17944563388545
  H   -2.44739985185525     -3.01744996012997     -1.30907325843989
  H   2.67126346084489      1.61169784631252     -1.92765424084006
