21
Coordinates from ORCA-job ./opt_b97-3c_parallel
  N   -5.03802008428352      0.00494434186173     -0.44705290737715
  C   -3.88613831065524      0.03047608670196     -0.30215857228617
  C   -2.48569491180331      0.09172470915913     -0.12074427541121
  C   -1.97075465436984      0.94423577583623      0.90820319704283
  N   -0.76751999844719      1.39436716716620      1.01188293550747
  C   0.31828886524023      1.13750426272526      0.24267941359642
  C   1.16291474560014      2.13577350610190     -0.17636371965164
  C   2.47550292934063      1.95265448026293     -0.64198047020359
  N   3.30968059218031      0.95449160237476     -0.45090397580936
  C   3.02296954356118     -0.21515358535817      0.13447881887418
  C   1.81167691950212     -0.86074518432804      0.30436237015584
  C   1.80809849249629     -2.20005801603601      0.75972592483508
  N   1.80530341934783     -3.29040237519102      1.15880469777836
  C   0.54732461097286     -0.27961045292069     -0.07572384999065
  N   -0.37587572547570     -0.99639399254571     -0.63762705542767
  C   -1.66204358092393     -0.73128512227311     -0.86546641227158
  H   -2.10215948693508     -1.31188154393617     -1.66760976335094
  H   3.90099206932678     -0.77757000238132      0.43367218542635
  H   2.91845106978036      2.80138441591033     -1.15564608213779
  H   0.79306031848361      3.15266714263522     -0.11732308865690
  H   -2.65828270653612      1.25449796253792      1.68902217645613
