26
Coordinates from ORCA-job ./opt_b97-3c_parallel
  N   -0.63469068135658     -3.68271336322707     -0.69203811378245
  C   -0.21286563730850     -2.61218870628587     -0.52325300308409
  C   0.28912983524033     -1.30560253792912     -0.30189167702796
  C   1.66895020218055     -1.19791776451463     -0.39822957683638
  C   2.51986126895553     -0.13086111286820     -0.14346027833178
  C   3.91229795377894     -0.33838178670597     -0.19185132715912
  N   5.07195104294902     -0.44218229525419     -0.20141122417180
  C   2.05542926484746      1.14526286463929      0.30477005148341
  N   0.84547130311500      1.64643331734431      0.14562282207271
  C   -0.33129063661081      1.12818179758530     -0.17454514441654
  C   -1.26305312639543      2.05905862728594     -0.67849816179297
  C   -2.64152571322131      2.02079860544161     -0.73616873399162
  N   -3.54157887745349      1.17515979759130     -0.25373250591620
  C   -3.21444805553224      0.00058157325443      0.28826718427306
  N   -4.25788964511548     -0.64069024177070      0.86357083691550
  H   -4.18603649302593     -1.59526310998920      1.16222992310947
  H   -5.17329370377415     -0.25380720154862      0.71681106897363
  C   -1.97844770393162     -0.69241186408561      0.27135621195480
  C   -0.69946799632006     -0.28276261572485     -0.04537903532561
  H   -2.06979109541137     -1.74527950124825      0.50578146769206
  H   -3.09497427230153      2.88974679835634     -1.20516799545840
  H   -0.81125645867300      2.98800668259372     -1.00130056424914
  N   2.93285257403700      1.96489118659466      0.91291669817984
  H   3.89614985856979      1.70623530231642      1.03095528201850
  H   2.65018245402949      2.90841303428948      1.10479927707988
  H   2.17092407042769     -2.11707492153922     -0.66912761160226
