32
Coordinates from ORCA-job ./opt_b97-3c_parallel
  N   -0.38408579188579     -3.53183641805434      2.17710529588476
  C   -0.68031707309547     -2.62717240070650      1.51119842012386
  C   -1.05962478278141     -1.48315847981550      0.76584776398082
  C   -2.41865655833897     -1.29014840629977      0.59396777111835
  C   -3.11700328782013     -0.27686345939331     -0.05653008005915
  C   -4.49403135363070     -0.49898396272385     -0.28814036355493
  N   -5.62888956089466     -0.62009444851791     -0.51001258317135
  C   -2.61423824627737      0.99585689283095     -0.44183271763243
  N   -3.45311548035618      1.83917674671737     -1.06453751781226
  H   -4.42137469384438      1.59635224757337     -1.18814355792474
  H   -3.18360737613153      2.79062440045766     -1.24696816723586
  C   -1.31398272681220      1.47987183791286     -0.11526362499543
  C   -1.13727885508619      2.87848760430992     -0.24767188266105
  N   -1.08633702229650      4.02887455317605     -0.40720007312062
  C   -0.16106785108550      0.79034589290485      0.31001789972728
  N   0.80308442989525      1.54683744115305      0.81784131632941
  C   2.10870185567443      1.44924392019558      0.75878614996670
  N   2.79223438204185      2.26927527270548      1.57695653352609
  H   2.28623982864991      2.99796669867406      2.04771236934550
  H   3.79382074277119      2.32736282659128      1.54189573487613
  C   2.85417058640348      0.62318293571832     -0.14696360805521
  C   4.16972262344618      1.00944719887999     -0.45025636939526
  N   5.26492918858814      1.31548061357137     -0.70265482736228
  C   2.40173771753951     -0.60698448161542     -0.64191449468382
  N   3.20717463369493     -1.30297439264949     -1.45840916668030
  H   4.13800840466732     -0.97790860229941     -1.65578850023648
  H   2.97012912563248     -2.23789563616665     -1.74294044385283
  C   1.14971964591363     -1.24020049196138     -0.26962343985896
  C   1.08522563876011     -2.61315011603617     -0.60696895455443
  N   1.10841142738860     -3.70955211026701     -0.99247696883946
  C   -0.00470704483305     -0.65666358287801      0.24095233933199
  H   -3.03733795839885     -2.09234084998786      0.97265999437670
