24
Coordinates from ORCA-job ./opt_b97-3c_parallel
  N   -2.39225540715926     -2.82535627788367      0.11551956681008
  C   -1.87876878011771     -1.79330720309789     -0.04403423275529
  C   -1.35986436157755     -0.48645492598942     -0.16266657893081
  C   -0.03589285816719     -0.35822176245867     -0.58898407134058
  N   0.58254882598663     -1.45013275089694     -1.06010169245050
  C   1.82163309109212     -1.82037561885836     -0.85062463292981
  C   2.80338743951724     -1.25574690394907     -0.04263605673634
  C   2.83728509364509      0.07658767324178      0.36660018940215
  N   3.89886518447465      0.49856790774330      1.11040859421603
  H   4.07396133239810      1.48250736137908      1.20085197854184
  H   4.70523590786099     -0.09346053280882      1.19214244830383
  C   1.90421429705001      1.07360202672647     -0.01493429435998
  C   0.64245361197527      0.93586248019822     -0.53481258580922
  N   0.03174391085999      2.04182238168694     -1.04675368985657
  C   -1.21397927065347      2.36482579857588     -0.86792486443974
  N   -2.16611454270661      1.86393895698221     -0.07107366987027
  C   -2.20996088105232      0.59360178628734      0.29249886208204
  N   -3.21876107211093      0.26892138329621      1.12573221981675
  H   -3.92737548817573      0.96426757216480      1.27739964625400
  H   -3.43816311513165     -0.69167077779091      1.32204706001406
  H   -1.52874368236296      3.25371808770343     -1.40894687988804
  H   2.22041716174606      2.10375029758400      0.10482681190908
  H   3.67093975254051     -1.86900531987133      0.16781823513043
  H   2.09498008826612     -2.74046075806530     -1.36091579191152
