26
Coordinates from ORCA-job ./opt_b97-3c_parallel
  N   4.17908034115852      2.33542912732340      0.35831191696440
  C   3.17727055861625      1.79043434678637      0.12646615990598
  C   1.98844285697077      1.07634332769489     -0.11519427307793
  C   1.96813403425505     -0.29378673897210      0.21459586194244
  N   3.05608216440594     -0.82042274204813      0.79658265424424
  H   3.87249796393250     -0.25311076787521      0.95099823997273
  H   3.13940469274670     -1.81109000408436      0.94520466856778
  C   0.89570936069661     -1.20692354303787     -0.11354849609647
  C   1.25049224977002     -2.57184172516600     -0.02682255773014
  N   1.59370089280346     -3.67909786976793      0.07408936307823
  C   -0.45947397110890     -0.93362748081319     -0.35840694163881
  C   -1.32657826412519     -2.02655702096704     -0.67325530405362
  C   -2.64793087277572     -2.19012479311532     -0.37544936844118
  C   -3.51538669094711     -1.32026869925066      0.30727965571188
  C   -3.29186985317056     -0.00158700515944      0.58400091359650
  C   -2.19625748306347      0.80151042842772      0.19686892223461
  C   -2.37795008650616      2.20214951845124      0.36359554236888
  N   -2.57250383394754      3.33281127210649      0.53980212958572
  C   -0.96867400057423      0.41913989019699     -0.36552044792816
  N   -0.26740595631251      1.39758960202963     -0.98120512838018
  C   0.98231462691030      1.70031090870930     -0.89012005412273
  H   1.29589633968618      2.55233736625301     -1.48652103729862
  H   -4.09074082680725      0.53491366660158      1.07830926192450
  H   -4.47535124386981     -1.72371062324159      0.59949035389449
  H   -3.06643649660696     -3.15063141873500     -0.65068832927841
  H   -0.84050122934092     -2.87797878734893     -1.13251324804727
