26
Coordinates from ORCA-job ./opt_b97-3c_parallel
  N   -3.55875070388400     -1.71885149531131      1.23666716171101
  C   -2.86609969856556     -0.86955618478121      0.85121069012628
  C   -2.05447549486275      0.20891668226655      0.41077062236730
  C   -2.63530888697456      1.48255238471238      0.53786422962356
  N   -2.28502790933427      2.65250515605604      0.05350166836144
  C   -1.13137212204574      2.85529483028102     -0.59901173968676
  C   0.01158254465606      2.10293890147722     -0.69258827171732
  C   0.30275733337678      0.79289511576979     -0.22181618875948
  C   -0.77786184341863     -0.17665610244191     -0.10148915053411
  N   -0.66950891362919     -1.44561773390926     -0.43876017318404
  C   0.37400136622011     -2.26104268177316     -0.45897430071541
  C   1.63724316613978     -2.06061307808949      0.12164124913210
  C   2.21762908911400     -0.83067499239681      0.35918521269281
  C   1.63971890760132      0.45964963786649      0.03597086008023
  C   2.56303623181684      1.52710335788347      0.04793291344680
  N   3.37535818576489      2.36043370161218      0.08692847511181
  N   3.46067480252394     -0.80763789497803      0.89512303471468
  H   3.98605147972968      0.04817979808349      0.93660611269591
  H   3.97896756781816     -1.66119810018105      0.98533750579985
  H   2.24272209948585     -2.93885778659400      0.30783006786363
  N   0.12340491413004     -3.44583932006952     -1.06312986534668
  H   -0.83477361463667     -3.68376715964541     -1.24810220639330
  H   0.80783678504446     -4.17751707835765     -1.07575429741290
  H   0.84187746460043      2.61399839313973     -1.16391363674520
  H   -1.07664607187590      3.83138246454226     -1.07161085005235
  H   -3.57965721669589      1.49000808894064      1.07418545172208
