31
Coordinates from ORCA-job ./opt_b97-3c_parallel
  N   -2.38557745209744     -3.55048654445981      1.58262068235039
  C   -1.90931543414325     -2.60554422246314      1.09404442929189
  C   -1.38749238881122     -1.44389472986713      0.49557278843885
  C   -0.07108782982883     -1.53203016391889     -0.07415567691590
  C   0.79271984159573     -0.52275649791864     -0.28928349879764
  C   2.05899708290988     -0.78855820397593     -1.00852394243477
  N   3.25900858891392     -0.50593083532964     -0.60556826976856
  C   3.56205479210519      0.19512509282789      0.51671708881286
  N   4.82681965860817     -0.06998332217053      0.97348763760538
  H   5.24532622120035     -0.91478093274043      0.62617494869636
  H   5.04222849079886      0.16432102985543      1.92540962564616
  C   2.83018240881449      1.21950113580093      1.09575188518368
  C   1.53424184200658      1.60919066479459      0.74438510478163
  C   0.57739549822042      0.88034713794046      0.07666284524348
  C   -0.65998513177821      1.51143365017169     -0.31384070509397
  N   -0.58509714128863      2.82074201386031     -0.64987607604552
  H   -1.40986378496990      3.32184312195255     -0.93572323836600
  H   0.30008396548585      3.19233352073467     -0.94030483053103
  C   -1.91296196471171      0.88613442587973     -0.31596936487560
  C   -2.99077559715644      1.63731037670101     -0.81686777259329
  N   -3.87088524469738      2.28601683740510     -1.22396286585593
  C   -2.25030511909535     -0.36268904573537      0.34798343833967
  N   -3.52285392488158     -0.45904455255215      0.80092903992009
  H   -3.88116821406365     -1.35259126644699      1.09115743129470
  H   -4.19437441662922      0.25281179393320      0.57814716479600
  H   1.22816884710762      2.58412185096214      1.10782599521348
  H   3.34133153250435      1.82454651900045      1.83401546769962
  N   1.93665575770337     -1.43238007994747     -2.19068114551169
  H   1.03164369975068     -1.54645798908262     -2.60507911130700
  H   2.75390617059476     -1.55464109623566     -2.76364468220228
  H   0.25093358843424     -2.53364928659775     -0.33620524354543
