33
Coordinates from ORCA-job ./opt_b97-3c_parallel
  N   -4.43146567063526     -0.91215866861355      1.22888166498932
  C   -3.44967256197458     -0.52053512088828      0.73568575007708
  C   -2.24796945387646     -0.09440592552590      0.13978581023695
  C   -2.34113754891875      0.93698843498425     -0.88800003649779
  N   -3.53241913126904      0.95381213032504     -1.59894702316114
  H   -3.76966586460451      1.83977763068107     -2.01286139020500
  H   -4.32361349527697      0.52260872048026     -1.14870463732913
  C   -1.38168375987526      1.87389162310406     -1.14146676611560
  C   -0.11935673636063      2.00202885750796     -0.50438681857016
  C   0.62852515513634      1.00546744288866      0.03166118806855
  C   1.84028615037857      1.31136381531927      0.79901091933175
  N   1.75052308769118      2.39489070757234      1.64428500212566
  H   0.82810827311010      2.60321218199713      1.98559060050806
  H   2.47628428141430      2.50272469928777      2.33383778994765
  C   3.01789332108979      0.64338010137009      0.65218644595564
  C   3.30365317395600     -0.37775190808945     -0.30977660865867
  N   4.65980922082804     -0.53941123293965     -0.57657418443788
  H   5.19025662423450      0.31603368695657     -0.60457113927071
  H   4.87207208915313     -1.13579916841188     -1.35911479129221
  C   2.40453216589188     -1.23689440138331     -0.88221998505188
  C   1.03287302568374     -1.39769993817095     -0.51945079184459
  N   0.51755319939081     -2.69919729918788     -0.65345533799750
  H   1.12293818193251     -3.31933846829374     -1.16472073068512
  H   -0.42248161334625     -2.73562909173536     -1.01849883334457
  C   0.22954801087459     -0.40653571944171     -0.02784626827390
  C   -1.07965056262094     -0.71040684315625      0.55712437806976
  N   -1.08998853283583     -1.60987800121671      1.57488382255658
  H   -0.31580036837614     -2.25065206413739      1.60812541190818
  H   -1.97259689797691     -1.97254849349111      1.89960388248682
  H   2.79964392733750     -1.96220469622361     -1.58736012727568
  H   3.85804530745278      0.95824272023823      1.26244755138803
  H   0.29302155158537      3.00526865179690     -0.46890668925705
  H   -1.64188366149355      2.65310374349650     -1.85065147728093
