31
Coordinates from ORCA-job ./opt_b97-3c_parallel
  N   5.28288928510955     -0.30618548889548     -0.53815221967295
  C   4.13695005727775     -0.19741364393518     -0.35213783255713
  C   2.76085284024836     -0.04571058519025     -0.12912285587965
  C   2.09949861929171     -1.00503797021582      0.69949968634648
  N   0.81587050744824     -1.26982713748576      0.72793798601542
  C   -0.24490538264167     -0.66322756577297      0.21066120898275
  C   -1.29469551201555     -1.50870946986472     -0.17221114809067
  C   -1.00049043633959     -2.88911424266533     -0.21187605945617
  N   -0.84669640500793     -4.03957413625233     -0.29560271160808
  C   -2.62688550926097     -1.13184015934074     -0.56062213008643
  N   -3.29846981948371     -0.04993596846372     -0.22707437132412
  C   -2.82695322559006      1.03879056198724      0.38097117656638
  N   -3.79754725495666      1.80188741896246      0.93428294835344
  H   -3.59944274185044      2.73060287723684      1.26227698187909
  H   -4.74540941719695      1.57508541454961      0.69484916208080
  C   -1.49117127307276      1.51540070536384      0.42488382765225
  C   -1.33628395009917      2.86603259915593      0.78413633959742
  N   -1.25139483632354      3.98793190659835      1.08918376729651
  C   -0.30403288037466      0.79728451026410      0.07485154618603
  C   0.79923232567820      1.51414295347905     -0.33666040316285
  C   2.13522302426215      1.12914834969160     -0.58758919773131
  N   2.88363295535188      2.01601136429702     -1.28461710645571
  H   3.87931800556520      1.90151102001650     -1.35813179992233
  H   2.51007842683109      2.91831444908024     -1.51033932865165
  H   0.60484161798949      2.55916696292276     -0.54233748028028
  N   -3.32524280531608     -2.02265306230808     -1.29705926990724
  H   -2.96454966762224     -2.94498034605005     -1.46552489714619
  H   -4.31486337551150     -1.87556511661256     -1.38076768168474
  N   2.85951638388986     -1.77458180157059      1.51239052097295
  H   2.43871245747990     -2.61145583580497      1.87455105303700
  H   3.86152346334164     -1.73641492797807      1.46135528914969
