27
Coordinates from ORCA-job ./opt_b97-3c_parallel
  N   -4.90124260100223      0.49762867382864     -1.49403951890934
  C   -3.88842999754331      0.44147318350558     -0.92662119467732
  C   -2.67435349162701      0.39790294740428     -0.20203364068197
  C   -2.61256721747566      1.19686193901319      1.03372202264176
  N   -1.58732865481648      1.71881963349051      1.58775336644534
  C   -0.33267827836080      1.67695077857938      1.00268154369196
  C   0.26157602168762      0.63097603413231      0.39488822936064
  C   1.60321393977057      0.81655928065975     -0.18673362064879
  N   1.82495741101341      1.99601426529112     -0.80152468786076
  H   2.69374278433779      2.16650384309387     -1.28143826529775
  H   1.04751967034622      2.58817749543558     -1.02501618983272
  C   2.61837666270811     -0.11930811266565     -0.05997273432673
  C   3.88391544771401      0.24006326333684     -0.57278166574268
  N   4.89920968200145      0.59305877021533     -1.01861530824581
  C   2.51587983136619     -1.39252608035324      0.58915606836886
  C   1.42186807098819     -2.15599720456119      0.79958248445545
  C   0.08230960573306     -1.88775394132581      0.36117512563180
  N   -0.72076438185335     -2.99106762225631      0.16526671935484
  H   -0.32535506898711     -3.88826616189465      0.38055306580052
  H   -1.69575720624287     -2.91474046309775      0.39358919907328
  C   -0.43702364974779     -0.63636439744729      0.11370957307931
  C   -1.71709508540295     -0.51749383677034     -0.52390005144231
  H   -1.94889262598485     -1.23543012790688     -1.30792956825203
  H   1.58319341089662     -3.11701465373591      1.27296413643518
  H   3.46421677642182     -1.81764605407271      0.89338964961936
  H   0.22997309016559      2.59010039975101      1.15672885272852
  H   -3.56571391180666      1.34026196715078      1.53927037483155
