25
Coordinates from ORCA-job ./opt_b97-3c_parallel
  N   -1.80326363722233     -3.60703481217873      0.29333311104944
  C   -1.58731657089047     -2.46518099120843      0.24993998506043
  C   -1.35239257943607     -1.06923170094461      0.20427567930579
  C   -2.41172393878824     -0.27776881482841      0.73635539862168
  C   -2.62606239216519      1.05480011141690      0.63355590133574
  C   -1.84273246909556      1.90549000064748     -0.21876693828722
  N   -0.60941237383240      1.73820737861569     -0.58440212364331
  C   0.27661807871410      0.77712941793235     -0.19443459373001
  C   1.53804098925833      1.22600127121331      0.11484191368029
  C   2.75583743747846      0.51307312516956      0.27872892474534
  N   3.09188228965420     -0.68915213623286     -0.17201632616984
  C   2.21839886968824     -1.54028884396950     -0.71269147440928
  C   0.84333592902198     -1.58142930494835     -0.72434849766524
  C   -0.08752436192230     -0.64034052031606     -0.22512560997888
  H   0.42476234386651     -2.50975382337415     -1.09120669554277
  H   2.70123555933607     -2.40867773046904     -1.15161795930838
  N   3.76419282976551      1.17104922317858      0.90317708831654
  H   3.67420985616430      2.13143146537873      1.17385054747881
  H   4.68287467881156      0.76919732799280      0.84920947957183
  H   1.60483883603639      2.30430983105522      0.20170829639493
  N   -2.46828271236050      3.02906224908429     -0.68732287594314
  H   -3.46807569545358      3.00977171262516     -0.78140793389353
  H   -1.97305824526735      3.52535641013231     -1.40940367084302
  H   -3.52342010077093      1.46980580162670      1.07293100317214
  H   -3.16735052549179     -0.84467285689804      1.26609571488059
