27
Coordinates from ORCA-job ./opt_b97-3c_parallel
  N   -3.69770080829453     -1.33959731939727     -1.98877825695628
  C   -3.04934495520804     -0.62524362020505     -1.34086845017644
  C   -2.25611008634356      0.22050600932712     -0.52654511845947
  C   -2.63979338634151      1.51824799398262     -0.37384853568575
  C   -1.96454634929827      2.53406231752793      0.34384401450485
  C   -0.64587012015559      2.56108629399965      0.66368296860625
  C   0.35747338779880      1.58570451781528      0.36152610803680
  C   1.69312596858774      2.06165897011092      0.47974025888016
  N   2.76401408617143      2.48005678197708      0.63872089870772
  C   0.18133089208813      0.25337384291785      0.04411101784259
  C   -1.10891268737287     -0.42582318021784      0.13795284283778
  C   -1.27164427392147     -1.64251600917256      0.71131226207902
  C   -0.27250464061707     -2.46100983171640      1.30629082453766
  C   1.05432296015773     -2.48366553472359      1.05116724108718
  C   1.74444420258437     -1.73217402920040      0.03804067100814
  C   1.29926133404035     -0.52025454902636     -0.48184315431616
  C   2.04308305427513      0.03747870643967     -1.53906243091011
  N   2.68392831942451      0.42234832572028     -2.43152529645850
  N   2.92246232634421     -2.25001844814300     -0.37474001176077
  H   3.16211102364703     -3.19809212978467     -0.15557564366848
  H   3.44364172099500     -1.80396706039315     -1.11056036448978
  H   1.65058772220341     -3.22569549170057      1.56809006082699
  H   -0.63800487941167     -3.20266026043357      2.00645971891207
  H   -2.28322956394700     -2.02663050354430      0.75836096867172
  H   -0.27174754072764      3.46692343304750      1.12181092338867
  H   -2.53998879128560      3.42284373213564      0.56659270970529
  H   -3.57176771329483      1.80239936475744     -0.84635988205211
