27
Coordinates from ORCA-job ./opt_b97-3c_parallel
  N   -3.72110440895240     -2.12015687522168     -1.32740245488594
  C   -2.87472011507208     -1.45151387719259     -0.88615456295168
  C   -1.89054033648205     -0.60185605898298     -0.34664515919469
  C   -2.26552171380952      0.70912746174592     -0.05387496661100
  N   -3.57078835514865      1.08472981447668     -0.22687923210303
  H   -3.75794535826180      2.06119135667198     -0.36545562623097
  H   -4.17483139420861      0.46369656770076     -0.73967670707364
  C   -1.43953000190067      1.69785791413285      0.56282069603859
  C   -0.07884090163179      1.81047541047740      0.55394147495708
  N   0.51871029077644      2.91649820982161      1.09445090125869
  H   -0.03150175761037      3.52307244514614      1.67788506560050
  H   1.48394941688425      2.83240265826014      1.35872745477679
  C   0.83092048871847      0.84881714036018     -0.07497296648949
  C   1.91420630330084      1.27782108701340     -0.77863539926846
  N   2.81415268391138      0.52878423957206     -1.47952016280937
  C   3.14088586486129     -0.68210515182844     -1.14748280318786
  N   2.87592628299794     -1.39667021631511     -0.02254895649459
  C   1.75416344876215     -1.30499841742371      0.62304113683671
  N   1.64498353162643     -1.90112597016267      1.82742891391951
  H   0.75669089883496     -1.95798013690788      2.28693957909327
  H   2.41375355718389     -2.44874876246087      2.17338631173584
  C   0.55650259638108     -0.56988680830227      0.14070960145666
  C   -0.62896666250710     -1.19260958712771     -0.00195635134722
  H   -0.64463437607317     -2.26923110561339      0.12964052659724
  H   3.83655170917892     -1.17877051771962     -1.81788441792368
  H   2.04146924770052      2.34672572307910     -0.91373659393622
  H   -1.98755956756139      2.50352323899937      1.04029190053940
