27
Coordinates from ORCA-job ./opt_b97-3c_parallel
  N   -2.82252174431782     -3.72390397942724     -0.04658613458535
  C   -2.51793005948279     -2.60433439392296     -0.10242679069944
  C   -2.17205821689236     -1.23277415444292     -0.18217202829477
  C   -3.11330319324743     -0.41672042936477     -0.88758677113607
  N   -3.32145887846522      0.86256603792722     -0.80320832803910
  C   -2.63784048621197      1.65882864619045      0.04357078137266
  C   -1.34370945732645      1.55436993622242      0.46530823376555
  C   -0.86362730301353      2.51632558679341      1.38689526021849
  N   -0.47862918738206      3.27633093718190      2.17638377187759
  C   -0.40169880641471      0.48787378396548      0.07246633648453
  C   0.86820631808297      0.85512985328318     -0.30891415371381
  C   1.06072818556060      2.22355356016301     -0.63849723308780
  N   1.29940615509792      3.30043164962716     -1.00142385285562
  C   2.06382618079558      0.04001295322581     -0.47866082441908
  N   3.06780993866251      0.58358480412652     -1.18183869601600
  H   3.01425297256800      1.52897781259961     -1.52056208831329
  H   3.96156891152237      0.12317310965095     -1.22853385633933
  C   2.24570851467793     -1.20744565234150      0.13198265300893
  C   3.53704428376770     -1.77097623836764      0.02579799604310
  N   4.61712423792485     -2.18305646674907     -0.09879774995841
  C   1.28255041848256     -1.94795143838901      0.85553043961021
  C   -0.06985752272085     -1.82420111559308      0.90462604330541
  C   -0.89295663875739     -0.86279919090614      0.24948639342813
  H   -0.59927800561188     -2.59493627015604      1.44842136401902
  H   1.68736225805384     -2.80318972766862      1.38050988283675
  H   -3.19646071624391      2.52186816200522      0.38878537960753
  H   -3.78541064050847     -0.95339285213283     -1.55060160081996
