27
Coordinates from ORCA-job ./opt_b97-3c_parallel
  N   -2.66776929273232     -3.01858978554526      1.60259298097268
  C   -2.52045703587714     -1.99626588346148      1.06897462930449
  C   -2.33043565541979     -0.76453342517604      0.39590728439981
  C   -3.43496475060682      0.08675096364901      0.39965170585698
  N   -3.68163050642874      1.19504379851690     -0.29141326789454
  C   -2.73375924095625      1.76723507997391     -1.01899979524495
  N   -1.42858223937074      1.71517798447317     -0.89953282912044
  C   -0.61392445862247      0.86089436281674     -0.30323058835391
  C   -1.00051636913051     -0.54050169514033     -0.13232179469280
  C   -0.16708447205368     -1.60583893070288     -0.32253534845024
  C   1.24225009257258     -1.65727595991316     -0.44461448963673
  C   2.15455938587860     -0.63572392239962     -0.10323223188136
  C   3.51531099530634     -0.99181071435271     -0.12457464990544
  N   4.63781017392993     -1.30280646723831     -0.14434282365191
  C   1.85895749325533      0.69644236453353      0.31227883460418
  C   0.61677602041000      1.37024862956641      0.16275925168086
  C   0.65171318455876      2.76958801581684      0.35913003353476
  N   0.77425641541231      3.90631607277089      0.57134558787102
  N   2.88499010835900      1.41684885119804      0.79660455344077
  H   3.81969678567415      1.04762560376670      0.80015314290148
  H   2.77259265617887      2.39889883473558      0.98370789440759
  N   1.74377112709705     -2.84762955717205     -0.83064499554904
  H   1.13165310866312     -3.62607557482939     -0.98736874180506
  H   2.73167280698780     -3.03328031679300     -0.81505086718765
  H   -0.64283283023694     -2.57814535377747     -0.30920833869048
  H   -3.08650114561157      2.45458359386910     -1.78171193977769
  H   -4.27189910843681     -0.25448683258480      0.99998667566702
