27
Coordinates from ORCA-job ./opt_b97-3c_parallel
  N   -0.54923688107903     -3.72563354461673      1.39260252593289
  C   -0.82573730090893     -2.66142315319354      1.01041594915346
  C   -1.16214631126056     -1.36912834369947      0.54202560992935
  C   -2.53013960159687     -1.13114396109973      0.41659343673075
  C   -3.22045694431893     -0.04498294597089     -0.06698243883004
  C   -2.68401505380267      1.20200690197139     -0.40768319556164
  C   -1.35521333071068      1.61084356923443     -0.23855710749294
  C   -0.19562758858874      0.92797038545535      0.11110650466491
  N   0.82837643951468      1.72613018919661      0.46315571007073
  C   2.12719906280056      1.52381252729955      0.39700041697580
  N   2.86489428165002      0.62749104084955     -0.29176993159827
  C   2.37878634940503     -0.57031091875510     -0.56310444038968
  N   3.22904398375890     -1.38114704977764     -1.24558664300472
  H   4.18772251016085     -1.08768798930728     -1.30704374798842
  H   3.03770612456118     -2.36252200999421     -1.32131064180184
  C   1.12616770984053     -1.14263745470758     -0.20804976087524
  C   -0.05869495681101     -0.53263676799725      0.13489742435527
  H   1.09191137363323     -2.22174281889391     -0.27768423155376
  N   2.88175338263433      2.42172893896301      1.08356941646280
  H   3.86551108099191      2.44156634801289      0.88898854069483
  H   2.43653643244822      3.26476205425592      1.39532557413648
  H   -1.17734582150305      2.67370218840161     -0.35543630392021
  N   -3.55108727741380      2.13665745331256     -0.91545067399978
  H   -3.26308122269961      3.09862879232007     -0.91080933717908
  H   -4.53387322435188      1.99700696435737     -0.76287306283154
  H   -4.29297583533834     -0.15933153713948     -0.16334167621041
  H   -3.14984795551571     -1.96784564766784      0.71478384022805
