25
Coordinates from ORCA-job ./opt_b97-3c_parallel
  N   -1.95466063834006     -2.88439858027937      1.44785071061313
  C   -1.80965874964467     -1.82081745774977      1.00260301683178
  C   -1.67683410297241     -0.50239731190362      0.49253804487259
  C   -2.84490187488724      0.27371760597434      0.49781085309643
  C   -3.07605852338851      1.50611651586292     -0.06361106214679
  C   -2.13358266952294      2.32967711771239     -0.68723299275687
  C   -0.77132809017790      2.19762679078283     -0.74736686082537
  C   0.07081280104760      1.18650012129829     -0.20730295830207
  N   1.30015102026015      1.56007765491278      0.08430947701941
  C   2.38144896467252      0.82068140290412      0.38324684513394
  C   2.65396009157323     -0.48573700846774     -0.00184254241597
  C   1.67276034904943     -1.34560297209336     -0.50999310259315
  N   0.35409930231448     -1.22909656405713     -0.39516558646836
  C   -0.39423025430496     -0.19598914270863     -0.04873306902103
  N   2.06079229029745     -2.47570507793377     -1.16049075289427
  H   3.02551169443994     -2.74969326235629     -1.14764151243289
  H   1.37683836674830     -3.20839768272620     -1.23188187088728
  H   3.66947930262106     -0.85149121700786      0.08382803148884
  N   3.31216657595096      1.51476385424857      1.09378985975208
  H   4.22927337326761      1.13063550217624      1.22551429911505
  H   3.22537251653546      2.51499574953992      1.09786457347461
  H   -0.21642372831176      3.02433061047638     -1.17361494667754
  H   -2.52674693276460      3.23706515455899     -1.13157252034560
  H   -4.09314450075525      1.87233501023045     -0.02518137135540
  H   -3.69888782980741     -0.21048623919743      0.95420141762088
