24
Coordinates from ORCA-job ./opt_b97-3c_parallel
  N   4.03070235770993      0.99617422317872     -1.60682009037250
  C   3.14338526306227      0.50139056260467     -1.04489442906354
  C   2.04377119240923     -0.08961948308966     -0.36567844523220
  C   2.15346282019473     -1.41845667302940     -0.03291492084959
  N   1.38435392250305     -2.05064560766684      0.89132624275694
  C   0.14518386959019     -1.81740394556306      1.08207613421699
  C   -0.74222052585605     -0.99692998887961      0.21603614477503
  C   -1.82920588610930     -1.54541996558120     -0.37313928753136
  C   -2.86793543229451     -0.86754388086648     -1.06465145695752
  C   -3.20591126458603      0.43920613312284     -0.88609080236926
  C   -2.60861026166149      1.39879333539948     -0.03285049689795
  C   -1.36036970658795      1.39415214325841      0.52905401703729
  N   -0.95110803774970      2.42700052178112      1.33926085878376
  H   -0.13881731369889      2.25809759551599      1.90643733976141
  H   -1.66659998633471      2.96316996553697      1.80019739386718
  C   -0.33437528710982      0.39690224022258      0.19827415582074
  C   0.95391088901695      0.78084189098854     -0.03554326014826
  H   1.16363717576798      1.84090411587008     -0.08293483920311
  H   -3.20974472764579      2.28035723590285      0.16499954958366
  H   -4.10046882733468      0.77985149913111     -1.39476845213055
  H   -3.51227933837986     -1.47034457821223     -1.69141851939168
  H   -1.92532522111594     -2.62430568464705     -0.29454295570557
  H   -0.29915899752608     -2.23451995450972      1.98462816317492
  H   3.02072061553828     -1.97223940606731     -0.36602009872383
