30
Coordinates from ORCA-job ./opt_b97-3c_parallel
  N   -3.83009223301479     -2.15050714940834     -1.79239069113575
  C   -3.09977180037899     -1.50612292835324     -1.15378012831352
  C   -2.27010100027764     -0.68896678461851     -0.35905642138205
  C   -0.89115479670459     -1.09897684800425     -0.20676414191440
  C   0.17620797464354     -0.32068427809657      0.06454889263467
  C   1.46126807836751     -0.96719603733833      0.38163742327731
  N   1.39744381931286     -2.06494515012900      1.16537071327230
  H   0.54374765853343     -2.27064896020759      1.64863516961324
  H   2.23913844736718     -2.51516581635165      1.48594486988519
  C   2.67161523646888     -0.54142399813842     -0.14480458265484
  C   3.80911155223548     -1.31805351682772      0.16148336158207
  N   4.70983978865258     -1.99532149436791      0.45368903784459
  C   2.85856614384992      0.57739886498986     -1.02277519553014
  C   2.09844431610050      1.68501020233753     -1.15134318149875
  C   0.94055549771178      2.03204187679269     -0.37449463928824
  N   0.69868859808923      3.39209550650664     -0.22128348970431
  H   -0.26495328424929      3.67887251486106     -0.24869033269776
  H   1.29334295133136      4.00009441105257     -0.75638079153329
  C   0.09994526680839      1.13879440569373      0.23516186932916
  C   -0.90756081423862      1.62766499892275      1.15012639522263
  C   -2.19287092751938      1.23844135352412      1.23852868570366
  C   -2.88554416800763      0.32914424868718      0.34882000667486
  N   -4.23885388544306      0.47923779673329      0.32035861521560
  H   -4.77178985273511     -0.04423486640064     -0.35435531801542
  H   -4.62858379191264      1.36385781384676      0.58984292318905
  H   -2.80933675829188      1.69484012648690      2.00471006051160
  H   -0.58595276765433      2.40930519053687      1.83575590744768
  H   2.44785078019881      2.43786117872516     -1.84851542173427
  H   3.76512760781875      0.53969240478255     -1.61406879466812
  H   -0.71782456516222     -2.15890147813754     -0.35136305543114
