20
Coordinates from ORCA-job ./opt_b97-3c_parallel
  N   -4.86820909342281      0.06330044812991      0.30815341406356
  C   -3.71057277884079      0.02925066918543      0.22075973279675
  C   -2.29783316492585     -0.00013600422615      0.11163490687957
  C   -1.63265733370559     -1.06513208036427      0.68739726948033
  N   -0.36827247804091     -1.43866780215867      0.48149826524204
  C   0.65517350426426     -0.74178880411468      0.08314287999751
  C   1.77992131886876     -1.39446925495165     -0.52615637311792
  C   3.07779856807515     -0.98279928185070     -0.47670849580204
  N   3.65014797728480     -0.01808317239572      0.29110592889782
  C   2.96236119085595      0.94467551760029      0.83509664647789
  N   1.73575459134905      1.40385638519629      0.52188438277148
  C   0.72249766331317      0.72812568494238      0.07196621855975
  C   -0.35685252959882      1.41919522380086     -0.58344401966373
  C   -1.66943658497456      1.08307970881582     -0.57912613490455
  H   -2.34170184049437      1.75669647604174     -1.09431778928130
  H   -0.06084419045140      2.32280409635019     -1.10092390244614
  H   3.48810898584112      1.55603139880550      1.56157687411482
  H   3.79748799888427     -1.56981146830480     -1.03660510104332
  H   1.55167733644958     -2.30375959504923     -1.06869090864674
  H   -2.20988418283118     -1.75440797395265      1.29221598852430
