24
Coordinates from ORCA-job ./opt_b97-3c_parallel
  N   4.17946413026680      0.32627386221159      0.72354585050705
  C   2.95989844206958      0.00142018319720      0.17975347606141
  N   2.45448773512486      1.05562978535866     -0.56506878973075
  C   1.21570083783730      1.31134450472708     -0.74828495527080
  C   0.00722055570508      0.64180128429587     -0.26564175693616
  C   -1.06052716614216      1.45598473009206     -0.06468485994506
  N   -2.31431298172067      1.20620318307361      0.42740312666242
  C   -2.95465240759997      0.10569711296293      0.21120712671431
  C   -2.50893586549595     -1.08362046207111     -0.51354378047920
  C   -1.23530956792584     -1.49812940769069     -0.64103065104877
  C   -0.01214392735138     -0.83004719663724     -0.25907619871631
  C   1.08558146159298     -1.61139192729800     -0.03686355643388
  C   2.40599661443869     -1.23792582955736      0.31702515883059
  H   3.04101097576806     -2.02460463981657      0.70934564487246
  H   0.92098737516213     -2.68190053877315     -0.09913841950177
  H   -1.10404809332972     -2.48769898683882     -1.06846428154687
  H   -3.29173073754412     -1.74855319426747     -0.85914608491200
  N   -4.23956202584985      0.02946586425882      0.67947257420185
  H   -4.62655259532311     -0.87919323350390      0.86329090537284
  H   -4.49648637279685      0.75325795003510      1.33039028419945
  H   -0.88769505187268      2.51723425371421     -0.22615813742638
  H   1.03122240186153      2.18733240329832     -1.37129189732850
  H   4.68797671819653      1.03538752800362      0.22286448683159
  H   4.74169100442934     -0.42789419847461      1.07772838192282
