26
Coordinates from ORCA-job ./opt_b97-3c_parallel
  N   4.07945319925440      2.66813345967317      1.11393130513007
  C   3.35812267055252      1.84565862867303      0.72311577879530
  C   2.46187085111916      0.85498255093676      0.24691663211455
  C   2.93627137159214     -0.43559361070876      0.15542681685397
  N   2.37941822413139     -1.47703269294570     -0.49026822824298
  C   1.10535356043570     -1.62607371403323     -0.68230870265946
  N   0.69009817842332     -2.48466278246624     -1.63375802491468
  H   1.37793774483514     -3.00097117411396     -2.15487859305478
  H   -0.26405530283056     -2.79623245332274     -1.65492984459525
  C   0.02751179219109     -0.89834901301914      0.04993275677884
  C   -0.91309223379006     -1.58141012970562      0.74749898543827
  N   -1.98743349370155     -1.03260133168777      1.44503763369161
  C   -2.65449142703160     -0.02323355569957      1.03514236858880
  C   -2.43172866328708      0.84696445015940     -0.12258804043754
  C   -3.57212888220827      1.54930576527087     -0.58999116954017
  N   -4.52806197757846      2.09949358977848     -0.95241141468632
  C   -1.20596498730986      1.15411015025830     -0.62204726897510
  C   0.03252098228613      0.53999800460330     -0.20858543726931
  C   1.16308575589950      1.29884665326264     -0.16450996239838
  H   1.06891414540058      2.35301177363598     -0.39383447783122
  H   -1.15151011192432      1.96378050156442     -1.34165922947259
  H   -3.51785282300683      0.24638665789951      1.63951662684990
  N   -0.90847748689188     -2.96519230436169      0.85855582078376
  H   -0.00115369252562     -3.40334565681726      0.85012227493444
  H   -1.47265740455587     -3.27793078191427      1.63272697461674
  H   3.94031300822101     -0.62253624111992      0.51642492880183
