28
Coordinates from ORCA-job ./opt_b97-3c_parallel
  N   -4.62333814199523     -1.29512014787982     -0.25451158958531
  C   -3.49851337887315     -0.99735048956176     -0.17139859118741
  C   -2.14620379853274     -0.63899430140211     -0.06746767774569
  C   -1.78962157326590      0.68850844702184     -0.42378711580865
  N   -2.75654060465969      1.45173615383819     -0.97867581656449
  H   -3.70555870786563      1.12282808458860     -1.00357876518440
  H   -2.60934139427315      2.43860365413270     -1.09922116830094
  C   -0.53157588156058      1.29954675150065     -0.17929136649541
  C   -0.49316691691903      2.69580630507609     -0.35806979532662
  N   -0.50883971275397      3.84935308311659     -0.52215046132242
  C   0.68805670908988      0.68670826595045      0.23001605591586
  C   0.91478403153368     -0.74570947841823     -0.00467465776697
  N   2.02028457945332     -1.17529653516541     -0.59890403474649
  C   3.26898795137452     -0.78646809743340     -0.49016956193470
  C   3.78021495883955      0.11788125997850      0.47909537566238
  C   3.02781112027879      1.10557332317759      1.05428194737404
  C   1.68111012455078      1.42988397221228      0.85098074859387
  H   1.37689557602253      2.39565814574354      1.23297120663031
  H   3.56672964343594      1.79019520460105      1.69871995841560
  H   4.84530912591462      0.10281741629695      0.67186051075860
  N   4.13652324896686     -1.33150664883776     -1.38288108453599
  H   3.83318346328854     -2.13042534947077     -1.90922151152887
  H   5.12210985602629     -1.17906976421688     -1.28879925072985
  N   0.04830054019329     -1.67195324718924      0.34494741362419
  C   -1.26284833719875     -1.60199632788263      0.49584247309059
  N   -1.79929592317622     -2.62506052366094      1.20008002304477
  H   -1.21617605807905     -3.42687198874841      1.35684921651436
  H   -2.79484706042334     -2.75094001756293      1.24170541983709
