25
Coordinates from ORCA-job ./opt_b97-3c_parallel
  N   -3.70179222436877     -1.05964267506672      1.14193491902333
  C   -2.75767436999243     -0.39116886021796      0.39889679407491
  C   -1.53226390520605     -1.06188361296188      0.20328508518196
  C   -0.32644551339336     -0.59282480790379     -0.27770438518681
  N   0.62627480593881     -1.50719335351312     -0.55442453892072
  C   1.92255481328880     -1.36514819065770     -0.39003821789276
  N   2.64148987187383     -0.46127996209092      0.31564308070891
  C   2.24034862247275      0.79018188193078      0.44167637230711
  C   1.09616842219569      1.42598576538539     -0.11416109252533
  C   -0.08372025509767      0.84150103833324     -0.50314518825835
  N   -0.99503823053160      1.62759252344603     -1.12881082841747
  C   -2.29349866909672      1.61155821781365     -0.97251359701536
  C   -3.10820055985392      0.84191088357169     -0.14467774045563
  H   -4.13746275793465      1.16434990305149     -0.04123452433183
  H   -2.81254630502089      2.35178140396698     -1.57941717503909
  H   1.12760549303516      2.50432718235381     -0.21222146047794
  N   3.08016240124907      1.58214480713900      1.16474270390311
  H   4.00593431564576      1.22905037353952      1.33001963413825
  H   2.96153774948501      2.57743620319512      1.14774991784007
  N   2.69376168215142     -2.33769679190882     -0.95487600403424
  H   2.22778317765391     -3.18550606971256     -1.22263472948380
  H   3.63692278086261     -2.41077423134544     -0.62003755624295
  H   -1.50833986383081     -2.10993891327392      0.47962652422208
  H   -3.58297617468825     -2.05042656066958      1.25737861515753
  H   -4.65903347793808     -0.77302082800473      1.03751522062578
