29
Coordinates from ORCA-job ./opt_b97-3c_parallel
  N   -5.83113430040792      0.18514929166215      0.58341364823311
  C   -4.67494773031631      0.08735045775191      0.49140898908906
  C   -3.27734904816269      0.02141364558805      0.32543928511505
  C   -2.67293269040059      0.94490241215340     -0.59531644606193
  N   -1.40790693398231      1.28871218168500     -0.59345038369375
  C   -0.34531467473764      0.79354074257947      0.01708401833602
  N   0.54504711828969      1.66722808242565      0.44122866721756
  C   1.85220435474539      1.55668128785029      0.56326464625793
  C   2.69262565284214      0.59244591869539     -0.07396595165610
  C   4.04552030131704      0.92833743807720     -0.23658725249798
  N   5.17170864386924      1.19962802398758     -0.36814657206995
  C   2.29709685277123     -0.71769727710754     -0.42531896637321
  N   3.22100396735927     -1.51304311018551     -0.99901295789373
  H   3.03134007841542     -2.48903002575488     -1.14542295471296
  H   4.17725449167805     -1.21226798867708     -1.07027650428067
  C   1.02064820073546     -1.29999261704717     -0.14424580819169
  C   0.96477551879678     -2.70436119810678     -0.26048719051201
  N   0.96422336796122     -3.86262499033272     -0.37833823144576
  C   -0.18106180081088     -0.65235888293899      0.21415043223407
  C   -1.23635450418604     -1.36931465947132      0.78657210927808
  C   -2.56788693173473     -1.01440218131671      0.92040318586739
  H   -3.16653727026681     -1.69351904003464      1.51353599079363
  H   -0.97858213796857     -2.33867126997434      1.19195842257132
  N   2.44013887496104      2.52094238394623      1.30123183834763
  H   3.43995319551048      2.59625388892286      1.35393384221048
  H   1.88874777981145      3.32393790513204      1.54375508261291
  N   -3.45602516909590      1.54570230234181     -1.51494938326551
  H   -3.08192008999784      2.33129868911681     -2.01494325077374
  H   -4.45221073610072      1.42104292352342     -1.49891578742429
