26
Coordinates from ORCA-job ./opt_b97-3c_parallel
  N   -2.76392589203867     -2.61418529827875      0.42535928614133
  C   -2.08568053967495     -1.42984466007979      0.21212938245053
  C   -0.69494538902797     -1.53171339822167      0.10526019607925
  C   0.30372352969936     -0.56442355993521     -0.05300903546785
  C   1.59537272433139     -1.03974570362940     -0.34711564180134
  C   2.86412827924693     -0.46587277227726     -0.24856718261493
  N   3.25872706942913      0.70668446562001      0.27698989004124
  C   2.39445586823373      1.63400576524220      0.65566491179409
  C   1.02052003018076      1.75349636226056      0.55898445484872
  C   0.02534938524776      0.86840486584398      0.09335785450770
  N   -1.13674708541776      1.45179249852259     -0.17322435587577
  C   -2.36636846849317      0.96156808292720     -0.32124716474859
  C   -2.86803246026565     -0.29156819064392      0.02255411052877
  H   -3.94372729873243     -0.42213580253454      0.01171189405966
  N   -3.23375769196899      1.87709940074301     -0.85734073864671
  H   -4.22021590185297      1.69901717406976     -0.81346515021765
  H   -2.94681321710548      2.83761677057017     -0.79185573405179
  H   0.62606007261300      2.72284869956521      0.83550853399036
  H   2.88256050676487      2.50501354979630      1.08812367003159
  N   3.92239323670722     -1.19748693939748     -0.72949091598186
  H   3.81283831665028     -2.18682434712941     -0.85827383621805
  H   4.82232467419540     -0.89164919290378     -0.40195829774904
  H   1.60843969963368     -2.07460685453096     -0.67327985382491
  H   -0.32031586123573     -2.54783164381178      0.16204373721464
  H   -3.69417794072164     -2.53488701007282      0.79671746015853
  H   -2.23614792339805     -3.36093083601415      0.84243278425122
