25
Coordinates from ORCA-job ./opt_b97-3c_parallel
  N   -4.51088940724291     -0.58508195421255      0.41399696014044
  C   -3.42919396896348     -0.24265619241688      0.15460762277489
  C   -2.08923918152040      0.10323065022059     -0.12624196662993
  C   -1.86562115543124      1.38457963399831     -0.73660328244263
  C   -0.74967261433881      2.14224800431044     -0.75066576054213
  C   0.50015951402368      1.84401185559429     -0.10231292229941
  N   1.25846531067259      2.93587760704817      0.29836910075312
  H   0.96828955142695      3.82484105456778     -0.06919328525302
  H   2.25746209090345      2.82080487631006      0.27223433020509
  C   0.93693108811724      0.58416203402912      0.16823275791231
  C   2.12231756823139      0.33385179973835      1.00925050172210
  N   3.15324892962588     -0.33259552764438      0.65234903569617
  C   3.20442886289893     -0.96271768950767     -0.57358871383857
  N   2.29443068008708     -1.69141172525136     -1.12859058520900
  C   0.99557154850643     -1.71783516585473     -0.69900503694691
  C   0.28848310772217     -0.67454728027765     -0.17734993276321
  C   -1.12754516007762     -0.85187391520177      0.16831574976429
  N   -1.46878223361614     -2.03802313129033      0.71653997663126
  H   -2.40723609354587     -2.19739979811627      1.04455995626493
  H   -0.74821949117871     -2.64100702906641      1.06584251768903
  H   0.47523226662949     -2.63930296524465     -0.93263606677223
  H   4.19032291771176     -0.97182911073057     -1.02719725498182
  H   2.10208228009939      0.70312433528229      2.03639259385388
  H   -0.82551480188668      3.11487109406776     -1.22319131651091
  H   -2.74709677345430      1.81856223824708     -1.19195942331642
