22
Coordinates from ORCA-job ./opt_b97-3c_parallel
  N   -4.36235900065034     -0.64796521315730      0.37960250282964
  C   -3.29178837116633     -0.25504959301154      0.14817743009959
  C   -1.96632741196229      0.16190137921548     -0.09752695922785
  C   -1.79596405341069      1.41124496773580     -0.80631566183067
  N   -0.81359130918251      2.24713757230114     -0.79800012301368
  C   0.32792132174709      2.04472302363725     -0.06929023324285
  C   0.94937313328110      0.88141498783778      0.20450443059108
  C   2.20024331456757      0.81902954516411      0.99402876023169
  N   3.27620945132691      0.25018236600051      0.61327679753170
  C   3.36732029738346     -0.46838720606537     -0.55283082854042
  N   2.52847139008684     -1.33481599802466     -1.01875245610480
  C   1.24533883507630     -1.45248634535181     -0.56801007845383
  C   0.44999919598302     -0.45769724527847     -0.08250412571237
  C   -0.95239678747138     -0.71681233377394      0.26396843608919
  N   -1.22326573366162     -1.88172819067927      0.87537503177649
  H   -2.15989731202300     -2.10903567670126      1.16667906190154
  H   -0.47489936027770     -2.46619690407997      1.19683550728328
  H   0.80417253333158     -2.42476103042339     -0.75791553542002
  H   4.33437859382896     -0.40530483808778     -1.03979649185592
  H   2.19063760963923      1.24194552776031      1.99824391861595
  H   0.80900585781830      2.96525136455072      0.24786369693391
  H   -2.66308272614996      1.71950378305175     -1.38525731969358
