22
Coordinates from ORCA-job ./opt_b97-3c_parallel
  N   4.56514140331131      0.83401607069474     -0.17579733462398
  C   3.42430497912883      0.65492228522473     -0.02923938463567
  C   2.05127420380539      0.37074539778477      0.10758616035417
  C   1.25391897055077      1.31736296239248      0.80202611799585
  N   -0.03277513075781      1.45658191424589      0.82592190173904
  C   -0.92150881443813      0.69932124969235      0.14351048353451
  N   -1.84827120777128      1.31146891640356     -0.53058674142257
  C   -3.03783956622682      0.85687864596939     -0.93176879849919
  N   -3.80649438004082     -0.06517044535401     -0.40886565684130
  C   -3.32718676800866     -1.00220655580789      0.44243495492551
  C   -2.04076297545513     -1.40294157459489      0.67660840858859
  C   -0.84223092052828     -0.76203258883802      0.22718680512734
  C   0.31684326077809     -1.44408103501950     -0.02421060167118
  C   1.61886475354106     -0.92473955502475     -0.25900715792443
  N   2.52570075399382     -1.78391453172471     -0.76721815452967
  H   3.49008819349054     -1.52034246290934     -0.87252532562566
  H   2.27148326827005     -2.72703182867932     -0.99007109000483
  H   0.23359737838842     -2.52400335882457     -0.07139258245950
  H   -1.91241848543520     -2.30317994425792      1.26650593192319
  H   -4.10609552020260     -1.59105710988359      0.91609138865056
  H   -3.47276040481030      1.42184058968598     -1.75024494877997
  H   1.80561454231445      2.04589310902708      1.38978214757898
