28
Coordinates from ORCA-job ./opt_b97-3c_parallel
  N   4.23237174453456      1.70809179920861     -1.80680437695427
  C   3.41881473323103      1.09389835175710     -1.24808529495336
  C   2.41408991258426      0.36968799896310     -0.56010794304904
  C   1.31108018798700      1.12492993874339     -0.02283064551659
  C   0.09296774292381      0.61160186880092      0.25325808563313
  C   -0.95356177221499      1.43563898255009      0.89781358445895
  N   -2.17014184588510      1.55480453766701      0.46825193386613
  C   -2.64019054764382      0.86647550299363     -0.61665189725683
  N   -2.44424833205502     -0.37543631494808     -0.98073158911037
  C   -1.48721375250080     -1.17675081511400     -0.44088128536034
  N   -1.82597373720636     -2.53255172908215     -0.50305671050765
  H   -2.60385026438808     -2.66960767437675     -1.12971584576222
  H   -1.06008222275730     -3.14583837016235     -0.73719622476198
  C   -0.28726689155273     -0.78187382173422      0.08679331788718
  C   0.66774733427638     -1.73165484091711      0.69834364969050
  N   1.92850316608716     -1.84390696837254      0.39497849662119
  C   2.60927080238519     -0.98041378380190     -0.38586427974214
  H   3.49905289002071     -1.40729718238296     -0.83477689995316
  N   0.18484981853617     -2.51772601850785      1.68946251319873
  H   -0.80742684585882     -2.67658229000898      1.73115505974451
  H   0.78776120510868     -3.24381410426128      2.03862998278063
  N   -3.52087839363767      1.58914960698609     -1.36138956176724
  H   -4.10027765952494      1.07346290204024     -1.99952197305691
  H   -3.91492148708547      2.40737631355239     -0.93471124743486
  N   -0.59192122135690      2.11714510485982      2.00500276555171
  H   0.28477883855961      1.91626807092524      2.44730241482126
  H   -1.30506526353608      2.58429814192420      2.53888162197537
  H   1.47835206676899      2.18282250789795      0.13874945995763
