23
Coordinates from ORCA-job ./opt_b97-3c_parallel
  N   -1.85986113085595     -3.01624096817672      0.08014505598353
  C   -1.47353109994855     -1.91843342619120      0.04128290433686
  C   -1.06814809356212     -0.56649365415149      0.02934219852618
  C   0.28800950750783     -0.30897315382337     -0.15409573267430
  C   0.89054651234534      1.01548582507011      0.02165019344891
  N   2.05162226153687      1.20737391315193      0.59458534498421
  C   3.08892515406432      0.41496744732539      0.84885797007650
  C   3.39671967430714     -0.77618543395762      0.23988320237870
  C   2.48393316370444     -1.52643101123228     -0.51572534273709
  C   1.13269104004685     -1.34770737364974     -0.64977211295910
  H   0.61289798784538     -2.11059183370633     -1.21541125880032
  H   2.87841577055317     -2.41526855452175     -0.99400849308823
  H   4.38954386372976     -1.17928901387732      0.38877286424192
  H   3.79403368038665      0.83033828882186      1.56209971234551
  C   0.22461354566870      2.16031102127182     -0.50726315615017
  C   -1.11957522704565      2.37589644436405     -0.59030924828533
  N   -2.17111081835070      1.66676892187807     -0.14662771661630
  C   -2.13972645047393      0.40553581142504      0.21762358361224
  N   -3.27843686701062     -0.05886248238444      0.77486037165861
  H   -4.07948498096822      0.54643298663930      0.74413614670397
  H   -3.41911565451479     -1.03716394663345      0.95245931778603
  H   -1.41448825321775      3.33436336037985     -1.00688306096266
  H   0.87605229604969      2.98232935017961     -0.77476955320832
