29
Coordinates from ORCA-job ./opt_b97-3c_parallel
  N   4.30264574151535      1.42414653407285     -0.89376211503998
  C   3.33808794287959      0.84645342178785     -0.58172531459293
  C   2.16134615167997      0.19084890530898     -0.18778416024125
  C   2.29249065483827     -1.05441840102480      0.57307907111533
  N   1.52375488859679     -2.09585149957744      0.49529653582925
  C   0.37320164287505     -2.14483461279439     -0.21656078410777
  C   -0.56340915204319     -1.17119535131922     -0.40617267483580
  C   -1.77412666604307     -1.53689830872329     -1.08142916543674
  C   -2.99280391968108     -0.97554890918394     -0.94126903519010
  C   -3.35557700831058     -0.05016850892243      0.11421827794176
  N   -2.60839688482010      0.75115204764754      0.81537794801897
  C   -1.29764436752877      1.04308050178468      0.52633789443899
  N   -1.00272119768681      2.35936708301919      0.89377352862297
  H   -1.72882441455392      2.73096447584551      1.48464206695400
  H   -0.08615897441186      2.50065361488324      1.28959570094403
  C   -0.34197804853304      0.23620201799366     -0.02959657458373
  C   0.94410223846978      0.79658496184554     -0.46016963771797
  N   0.90479494763527      1.93697052796852     -1.18254592443594
  H   1.75816405334120      2.42602023698521     -1.39821361770100
  H   0.05840975476309      2.47839699134862     -1.16884561852182
  N   -4.68923215188291     -0.02710755308695      0.41102146885093
  H   -5.24874279632929     -0.83020598029287      0.18680582697260
  H   -4.93521046901463      0.46243409072854      1.25483087905932
  H   -3.80969038010326     -1.36862465423616     -1.53369694062235
  H   -1.70862444223524     -2.38687095267546     -1.75477633589401
  H   0.14210004281800     -3.13566375552190     -0.59817335707179
  N   3.37181709343795     -1.13408859079516      1.40500283491735
  H   4.12921154959446     -0.48563463357500      1.28042406894706
  H   3.62633156133545     -2.06265593889024      1.69513063688358
