25
Coordinates from ORCA-job ./opt_b97-3c_parallel
  N   -4.59299057437440     -1.31171112169980     -0.43473328869169
  C   -3.51910773395419     -0.93595758225030     -0.18622559265643
  C   -2.23871000881439     -0.41500452336216      0.07187308543566
  C   -1.33556756312524     -1.18979561384728      0.84720598508145
  N   -0.05867511957494     -1.07122149862756      0.97355494256421
  C   0.78670788909436     -0.19630185275943      0.36717935289990
  C   1.95722344075259     -0.73458994414197     -0.16680032381425
  C   1.99281330417468     -2.15147570334325     -0.27873319176723
  N   2.07599727034081     -3.30193636550500     -0.41139104762728
  C   3.13763422664361     -0.06532082557568     -0.59230723766941
  C   3.51708455413230      1.21902143034269     -0.35596111442089
  C   2.77525561683781      2.20604046317341      0.33539113725939
  C   1.45881695143927      2.20438677901598      0.66334887469995
  C   0.45264099729710      1.21725444652396      0.35410166731411
  C   -0.82498679847474      1.66195750788030      0.10986527971266
  C   -2.01007765984055      0.94629139392493     -0.21314502600190
  N   -3.01640249514572      1.66934106064716     -0.74417039682895
  H   -2.90199919706496      2.64406435008636     -0.94569834910790
  H   -3.90365676045009      1.24614177002654     -0.95476143625565
  H   -0.93081730131317      2.74013449602768      0.06964225733165
  H   1.07968439964532      3.09942060531118      1.14327366244384
  H   3.32200958337911      3.10475224547578      0.59641210301425
  H   4.50880517031778      1.50251452702793     -0.68216606863269
  H   3.85803991026748     -0.70234185043991     -1.08831148751099
  H   -1.78052500179028     -1.99667219271153      1.42369458262748
