22
Coordinates from ORCA-job ./opt_b97-3c_parallel
  N   -0.79809717107214     -3.72287762098616     -0.03526792802267
  C   -0.32369184230254     -2.66332690254946     -0.07521183047036
  C   0.28051454443952     -1.38478698811008     -0.14451317718187
  C   -0.44831734978294     -0.28817931649104      0.28969642728702
  N   -1.54946285547551     -0.40077001274850      1.04824262499382
  C   -2.67002796742416      0.25463549165616      0.92050084760268
  C   -3.02497384501976      1.14464830208839     -0.10997952842184
  C   -2.10641614277168      1.77659073210108     -0.91321308751643
  N   -0.78472322096013      1.86396896508660     -0.73268736749237
  C   0.00277724049548      1.07776209871553     -0.05415776150067
  N   1.18865952304253      1.53080903709780      0.37773253049847
  C   2.32391141356619      0.91246335861776      0.19306725820031
  C   2.52603421060173     -0.31931985559346     -0.52787561346780
  C   1.61570690301292     -1.31799575830836     -0.64570410985363
  H   1.96622341236815     -2.22765013316528     -1.11633071833288
  H   3.52435604019274     -0.50332712360974     -0.90274087171487
  N   3.43834528195036      1.52637920576523      0.66982748936911
  H   3.29793711471552      2.32914789585208      1.25845027505562
  H   4.27186440737782      0.98996005913497      0.82248271430056
  H   -2.47261336520356      2.36723443972265     -1.74650465029471
  H   -4.07297822248619      1.37427151777228     -0.24710308149617
  H   -3.40996311906473      0.03835961055144      1.68574885035821
