28
Coordinates from ORCA-job ./opt_b97-3c_parallel
  N   4.86920572737231      0.81738178339666     -0.84340534986091
  C   3.76613202028051      0.60899653544350     -0.54032595572830
  C   2.43343071776279      0.26693561464786     -0.21941776986791
  C   1.70065488314646      1.17592029047020      0.57725612970433
  C   0.35233696262001      1.24917885634794      0.79201191380627
  C   -0.12319922688866      2.18853767305709      1.73849938015554
  N   -0.51949913705082      2.92509905419486      2.54459141233328
  C   -0.65082581399215      0.44273274290359      0.09691176064771
  C   -0.41938784293069     -0.99333157669258      0.08919420356239
  C   -1.53654545640944     -1.84045135694594      0.56181133048174
  C   -1.19660207946847     -2.83322848107662      1.51265837236636
  N   -0.88924483884895     -3.65761472723013      2.27166044416088
  C   -2.81622614280242     -1.78657202370105      0.10188176120332
  C   -3.36470606312615     -0.84816070439522     -0.80528210418820
  C   -2.89267491192911      0.39765464240374     -1.06155435764975
  C   -1.74711072303929      1.03877503657725     -0.48857708609684
  C   -1.74041619853744      2.45434246875880     -0.63259696513876
  N   -1.76447645557311      3.59787383004024     -0.82668877431203
  H   -3.49734705125917      1.03199939187197     -1.69546181337320
  H   -4.31395252915216     -1.11415511119915     -1.25075929969358
  H   -3.48815785365564     -2.55511795510600      0.46279833250953
  C   0.75435941912787     -1.59381896991590     -0.21377465340456
  C   2.01057300887934     -1.01696857668400     -0.59279294231221
  N   2.85504061255561     -1.83192239624299     -1.25168312153474
  H   2.58907711954439     -2.76896901002587     -1.48773898754296
  H   3.79385149249896     -1.54349026078526     -1.46947802474999
  H   0.74844160105074     -2.67712989362592     -0.18631482990043
  H   2.29289826382788      1.94384604041361      1.05730640392406
