24
Coordinates from ORCA-job ./opt_b97-3c_parallel
  N   -4.88252212893117     -0.76467206792301     -0.50825738014387
  C   -3.72232770732989     -0.71240208915058     -0.44121726841896
  C   -2.32105903565872     -0.59384670194731     -0.32035847997676
  C   -1.82937972631237      0.60574961807975      0.27506176889876
  N   -2.72873361830481      1.45864507638492      0.79146311963308
  H   -3.71355082974333      1.27544111588368      0.70252419630452
  H   -2.44991778806170      2.37923374001432      1.08492214892841
  C   -0.46544738004818      1.02296894731854      0.24951758687160
  C   -0.21543659101171      2.37715080669028      0.56325720416984
  N   -0.09175788299727      3.49723078928052      0.84918979312802
  C   0.65460185501555      0.24410761133848     -0.08772213514085
  N   1.78572208453754      0.82518402567607     -0.45086916479196
  C   3.00795446173901      0.31757591670629     -0.31953472131526
  N   3.46161956366486     -0.53732869942657      0.63171588310144
  C   2.64401882091274     -1.41151136092867      1.16881709655470
  N   1.46398843366239     -1.85643028522398      0.74868121922646
  C   0.59452029189495     -1.22821989640230     -0.00961737351252
  N   -0.29785080916559     -1.93070011719526     -0.69763287157859
  C   -1.55083826529669     -1.61503642444042     -0.89616095229015
  H   -2.08882260418381     -2.29148237599722     -1.55235757823462
  H   3.03136228621604     -1.93094128663202      2.03945752827703
  N   3.95017370200844      0.81496690445927     -1.13564915475575
  H   4.91112551826946      0.60288434571660     -0.93829268138814
  H   3.73000170172303      1.60953644741862     -1.70822517124638
