24
Coordinates from ORCA-job ./opt_b97-3c_parallel
  N   -1.57531523736630     -3.47503747717518     -1.28852525538851
  C   -1.47596086407416     -2.36365762027277     -0.95915493899420
  C   -1.33877024679304     -1.02053077477864     -0.54358814926183
  C   -0.07191709975892     -0.63950780176479      0.03499543452686
  C   0.34600729083096      0.76001235222621     -0.14882638759071
  N   1.55108145512959      1.02067476656514     -0.67973024800892
  C   2.71023373119037      0.53232335434671     -0.34325806367586
  C   2.97199705433663     -0.41098907929057      0.70570923341723
  C   2.07094403144128     -1.34566892971379      1.11155837115796
  C   0.73812162145506     -1.53480045349549      0.68270270677606
  H   0.30220753244093     -2.49904743964005      0.91140589611757
  H   2.44085983741138     -2.09350214872390      1.80332952929799
  H   3.98662050103705     -0.47054450793987      1.07793322846396
  N   3.79204575715996      1.00410022657251     -1.03004728280579
  H   3.58611504189718      1.56237917624205     -1.84112290283049
  H   4.61304691528776      0.42957017801799     -1.08754252712603
  N   -0.41885092035541      1.78464943751113      0.11279783544637
  C   -1.74652016769945      1.78429876163618      0.30540244605009
  N   -2.69282715499854      1.02674245519907     -0.25620202585890
  C   -2.44806906094782     -0.19783980743915     -0.70386136018559
  H   -3.29342947968354     -0.65301449645615     -1.20976840657405
  N   -2.20066195966479      2.77991082089809      1.09598402084819
  H   -3.18943972921812      2.95212624454860      1.10595223910654
  H   -1.57433299726374      3.52624473752750      1.33528314409045
