27
Coordinates from ORCA-job ./opt_b97-3c_parallel
  N   4.83156531784769      0.40972711940775     -0.53259432534548
  C   3.68833209550792      0.29727386815434     -0.32675631952869
  C   2.31529365072699      0.14765314911315     -0.08082530803089
  C   1.77178403642800     -1.13966923957632     -0.27376311653828
  N   2.60450154857674     -2.10750739270276     -0.73834984069582
  H   2.29532155325226     -3.06072425089355     -0.73940857411293
  H   3.59686070452311     -1.95336716866641     -0.77570622159824
  C   0.46318438324994     -1.56172208078991      0.02439664093225
  C   -0.68719888480969     -0.87594266864542      0.34919615841570
  N   -1.68487061477607     -1.65032553807716      0.84375717091191
  C   -2.97991774668886     -1.49540831308106      0.78163364563043
  N   -3.77126147495330     -0.65892146865548      0.11567055419264
  C   -3.31991737842183      0.52314777146698     -0.31416623545653
  N   -4.25101194960138      1.23864067745228     -1.00600208868198
  H   -4.11358544584603      2.21795791773361     -1.17294540577486
  H   -5.19864056128893      0.91146581753895     -0.93855006996632
  C   -2.06901121371791      1.13448788444480     -0.09904457349436
  C   -0.83886660910535      0.57739142861488      0.24335639379274
  C   0.23059642554077      1.46010707549342      0.47600257651056
  C   1.60437914433784      1.30152756414824      0.37414165080225
  N   2.37303149735045      2.38509449714909      0.70219809397538
  H   3.33471402432963      2.41012462800744      0.40988898006215
  H   1.92356699686773      3.27953211542403      0.76777979011628
  H   -0.07889601044509      2.47968307993481      0.67942977710270
  H   -2.03632912778953      2.19413422387503     -0.32687340284810
  H   -3.53070853842731     -2.24364816753090      1.34790622689310
  H   0.32680544633125     -2.63610445314031      0.05883164633496
