26
Coordinates from ORCA-job ./opt_b97-3c_parallel
  N   -5.72239328791270     -1.10760336812589     -0.31106329928697
  C   -4.58478796125383     -0.91578991831372     -0.18253843575383
  C   -3.19199848695476     -0.71590405683264     -0.01713144718378
  C   -2.51833144074539     -1.55751915970257      0.91468695549226
  N   -1.24714069755411     -1.75656699226170      0.98190021120344
  C   -0.26612553762606     -1.26023613423248      0.21370940150127
  N   0.58496620877706     -2.09777833284506     -0.30518258477797
  C   1.83753921854456     -1.88775683659303     -0.66652286702172
  C   2.70597089846577     -0.89854454458024     -0.23376830315441
  C   4.08145411194564     -1.08492483396276     -0.50101124592863
  N   5.22394485018424     -1.19731320061565     -0.68220317325454
  C   2.33610267947495      0.31977727203418      0.43682825461583
  N   3.32669817093173      1.06203879762626      0.94479011094268
  H   3.14739604260874      1.98351216509187      1.30829193629139
  H   4.28649527177717      0.78127161741647      0.83592630762204
  C   1.01371968896747      0.84028571898761      0.47759609384028
  C   0.89026726053561      2.14066071060244      1.01305812774226
  N   0.87331156260542      3.18971442871991      1.51416558650699
  C   -0.17096338753145      0.18703044853494      0.05671579094176
  C   -1.28100144285419      0.86324505306736     -0.48938135852332
  C   -1.04784865754603      2.13844647907448     -1.07041822718844
  N   -0.86761174135490      3.16065995594110     -1.58939527651912
  C   -2.59725500790521      0.38089768662030     -0.61711310055619
  H   -3.25629666923143      1.01247075575270     -1.19656222765182
  H   2.25557649472019     -2.65109257969948     -1.31234848503128
  H   -3.12442598716878     -2.06911938380417      1.65527896363159
