30
Coordinates from ORCA-job ./opt_b97-3c_parallel
  N   4.80075134957515      0.47277655968807     -0.67933902559165
  C   3.75695059315307      0.14474171176057     -0.27972364991867
  C   2.46203325493108     -0.19318051724461      0.16972574639429
  C   2.36193453842465     -1.19666815111799      1.19657022758928
  C   1.32115198886322     -2.02400414385763      1.45024009709695
  C   0.08432942239853     -2.07332473352563      0.73913950564209
  C   -0.50501542079019     -1.04602100385041      0.08275991032297
  C   -1.70878093184082     -1.27686421557925     -0.73327962322123
  C   -2.81319715963570     -0.48691145913430     -0.64938272449740
  C   -2.96897721297967      0.61450253350175      0.25851966190575
  N   -2.06614024437360      1.42664624436199      0.73767408441007
  C   -0.75083959323915      1.41072239203677      0.37291990893053
  N   -0.19079673523981      2.69589803205045      0.36882001230939
  H   0.74339566930506      2.74240570798213      0.74894891483724
  H   -0.80517513382972      3.34268785165674      0.83829976662293
  C   0.01274106412722      0.32192921075927      0.05896535690976
  C   1.39687770754847      0.47508210636361     -0.41468587332175
  N   1.57846199182007      1.29320859601956     -1.48182186269557
  H   2.51804181329874      1.52089138483871     -1.76707682031984
  H   0.88515275919431      2.00713280974018     -1.63237940783931
  N   -4.27090691448774      0.91639760385246      0.58813498676828
  H   -4.35858823405860      1.60646050984910      1.31578422914243
  H   -4.91664731985430      0.14912012951729      0.65548017175005
  H   -3.68172213148903     -0.74585032595493     -1.24473932100746
  N   -1.68346171747194     -2.38832847666002     -1.53022247450575
  H   -2.37796293381653     -2.46989347629790     -2.25390141458886
  H   -0.77633300594109     -2.74551160022678     -1.77313708170241
  H   -0.42773868254550     -3.02965283061084      0.73438056850197
  H   1.47620503796239     -2.78983941287611      2.20049266768110
  H   3.27327531179129     -1.36285263094223      1.75803661829389
