26
Coordinates from ORCA-job ./opt_b97-3c_parallel
  N   4.51891412654486      0.05695637887339      1.19955139287927
  C   3.46340134259841     -0.04515738041257      0.72255202974044
  C   2.19887790068608     -0.19330331905876      0.10750441789016
  C   1.16714842567248      0.62401139546515      0.46013152424759
  C   -0.17042178483110      0.54898839691278     -0.05564871897091
  C   -0.85311364976974      1.72318005032310     -0.30428384722687
  N   -0.14317532519781      2.91036046219687     -0.25668036773344
  H   0.78636599046043      2.90972940933580     -0.63811643249281
  H   -0.65670765605634      3.74651844743815     -0.47039206295897
  C   -2.25226818184680      1.83916472143220     -0.57468158914300
  C   -3.22098990930275      0.96281050756389     -0.20351771059340
  C   -3.09905360344005     -0.28795443925935      0.44604282972183
  C   -1.99958343472991     -1.09648463421957      0.49093332823459
  N   -2.05821093901092     -2.31107582837510      1.12427975617630
  H   -1.18308297670508     -2.72104848005839      1.39974429863780
  H   -2.81086616241963     -2.46041562237363      1.77479283145675
  C   -0.73067628832627     -0.80667460167051     -0.20523416310859
  C   -0.06159198763686     -1.81717921491807     -0.79612675813831
  N   1.13849128477756     -1.75744213361231     -1.49107799917097
  C   2.13358119877748     -1.07987187381225     -1.06921211948935
  H   3.05160024541464     -1.14382811579478     -1.65100661572437
  H   -0.52274023739300     -2.79580258058278     -0.84632997280433
  H   -4.00301632820834     -0.66814598436995      0.90983109222002
  H   -4.24111663133814      1.28765909831029     -0.37714975704783
  H   -2.57547829573486      2.77072982329414     -1.02424178640783
  H   1.37497991231592      1.41720370517208      1.17546085430609
