30
Coordinates from ORCA-job ./opt_b97-3c_parallel
  N   4.99451297876583      0.32861381570998      0.76400433140338
  C   3.85519891753597      0.31829288208598      0.51381357799476
  C   2.48407503846494      0.33033337642062      0.21048129607994
  C   1.95733296966180     -0.84179380783658     -0.40976724027119
  N   2.86765043715531     -1.74250626456104     -0.85098193137205
  H   2.57446192741336     -2.66613651622933     -1.11670244516159
  H   3.84394226332795     -1.60860538470694     -0.65867539965664
  C   0.59371647678212     -1.17119172728526     -0.55083264305617
  C   0.33826553756067     -2.46495027243839     -1.04350121869458
  N   0.17625832015166     -3.54401354364052     -1.45392628923461
  C   -0.56412178531096     -0.43971745126424     -0.10315543668879
  C   -1.65056477244419     -1.14959219344550      0.33964408437358
  C   -2.95211088872735     -0.68154016864880      0.69204251913405
  N   -3.57905580910810      0.40460727336247      0.29040507237092
  C   -2.97024808710108      1.29926338846541     -0.51873460431276
  N   -1.70999937186536      1.66256026414879     -0.60955972363412
  C   -0.60627386960480      1.02760123047364     -0.17906459565284
  C   0.46521641383842      1.84039728686776      0.12766653454184
  C   1.80084634915931      1.54580231958718      0.44135819393559
  N   2.51786676607281      2.56978243211434      0.97226656296119
  H   2.10070280178448      3.47754175379703      1.04625082090091
  H   3.51897693094208      2.51911116527310      1.03998850209866
  H   0.20912866167503      2.89270623261838      0.13085796410558
  N   -3.83548742170238      1.99275537126892     -1.30465819893465
  H   -3.50457552693016      2.84391211321300     -1.72024150262698
  H   -4.81250372087834      1.91786951519417     -1.08974962036289
  N   -3.66963316985206     -1.48759523072611      1.51586126620890
  H   -3.35284375429852     -2.41676671076181      1.71878238247709
  H   -4.65260891541708     -1.29999317318000      1.60167807806815
  H   -1.49540146931281     -2.21011112119640      0.48961068122674
