23
Coordinates from ORCA-job ./opt_b97-3c_parallel
  N   -4.98372746509503     -1.27445751488003     -0.41652629434308
  C   -3.86007345129116     -1.03180687822984     -0.25282887077442
  C   -2.48250246720655     -0.75418953441532     -0.04735241825366
  C   -2.02225806432432      0.48375254274837     -0.46744750336169
  C   -0.76581949902095      1.07085329959460     -0.28685935930589
  C   -0.65406257945161      2.43982655676925     -0.65206648429349
  N   -0.58204980939522      3.54989988962394     -0.98269610000325
  C   0.38750726474402      0.50038788184070      0.29979846534181
  N   1.28843507376924      1.30813033530204      0.85049988628498
  C   2.58169360287684      1.14462948816407      1.01800064946170
  N   3.43057955455979      0.32952227352856      0.41023309169390
  C   2.94972808731377     -0.75779240106569     -0.21393222897258
  N   1.80844939715824     -1.43139213059668      0.01911555349509
  C   0.62920477935917     -0.94367440981564      0.33306326440986
  C   -0.37466722853436     -1.86278949241314      0.74549780944412
  C   -1.72424192402935     -1.77272994001963      0.57950861317475
  H   -2.29566393076539     -2.63142954396894      0.90703821398900
  H   0.01442787022036     -2.79533951120090      1.13385700404908
  N   3.77878686894924     -1.33853045249295     -1.09074241252202
  H   4.69098483776412     -0.94385671784800     -1.23140274993878
  H   3.55796522794743     -2.24226293320953     -1.46646260274240
  H   3.03670229753289      1.85275359182752      1.70316025972054
  H   -2.75866226508247      1.12513033345311     -0.93155035215284
