21
Coordinates from ORCA-job ./opt_b97-3c_parallel
  N   -3.16950894350637     -1.27294710444286     -0.81804134783536
  C   -2.21519954918106     -0.50407544155791     -0.23341962965204
  N   -2.60914720772556      0.72109602059641      0.07242282729172
  C   -1.81232196622722      1.68992379927555      0.54508582858227
  C   -0.44833532454824      1.83620542675903      0.55935926939035
  C   0.49128896153881      0.88157955652957      0.09282421091184
  N   1.57792094356207      1.27809997568055     -0.52059672331117
  C   2.65858065188818      0.56184696947610     -0.86484909011549
  C   3.14375344236195     -0.58154893264666     -0.28898428408428
  C   2.45244087638166     -1.28338001204236      0.72425475587487
  N   1.18527389314800     -1.26277723460751      0.99746764468463
  C   0.21447286737522     -0.54880782919933      0.34970413982873
  C   -0.97588402632701     -1.14761231673542      0.06816950027563
  H   -0.99985236696922     -2.22533423385176      0.18607015900508
  H   3.04249932837690     -1.92453282244065      1.37636640151936
  H   4.14731689682965     -0.90036853425731     -0.53798385672123
  H   3.25336534340188      1.03141608300347     -1.64284737999273
  H   -0.05824840535780      2.81739881390346      0.79891702424832
  H   -2.37372262298784      2.55524978448777      0.88606757136192
  H   -3.02797463494494     -2.25552889629083     -0.95526812640474
  H   -4.11071300558902     -0.92181030233918     -0.81389466295734
