29
Coordinates from ORCA-job ./opt_b97-3c_parallel
  N   2.67020167377381      3.20578917792599     -1.71895176864727
  C   1.72672477185853      2.71399643225342     -1.24922492211576
  C   0.59369926244296      2.11105420906725     -0.65580275726886
  C   -0.57097645998940      2.85408005764950     -0.67770636720712
  N   -1.73559403798150      2.67508647653171     -0.07072594275618
  C   -2.16192976458757      1.54883150213378      0.47101835866617
  C   -1.62479055465090      0.21512546344048      0.28860848342527
  C   -2.51613135932181     -0.82457572218281      0.63939782910816
  N   -3.29539182804856     -1.59624465573405      1.02767322446503
  C   -0.32398324273124     -0.14228272051296     -0.07316497634689
  C   -0.08068422100270     -1.47452467104495     -0.53175067594738
  C   -1.07966714626408     -2.09940938939461     -1.30310652146556
  N   -1.81858357284890     -2.67388916932547     -1.99591813185387
  C   1.07769445504922     -2.25928757988452     -0.28206274315920
  N   2.09172715690247     -1.99419602210852      0.55453033550392
  C   2.49753743634103     -0.78884083440412      0.88138072300313
  C   2.04181015036629      0.47190891422054      0.37847485255573
  C   0.79633569974154      0.80096091041242     -0.05986224497120
  H   2.77894216074126      1.26416776854272      0.38290282204665
  N   3.54960454579945     -0.74180718786217      1.72639621326699
  H   3.85473022093829      0.12260605175125      2.13104645619408
  H   3.90616845592981     -1.60356788581425      2.09858360968890
  N   1.16124663656934     -3.47514967153670     -0.85128585998651
  H   0.40193958791790     -3.85931347841171     -1.38621156811081
  H   1.90119312484107     -4.08114226880821     -0.54810199143940
  N   -3.27674179265814      1.66976222204336      1.21702662051430
  H   -3.74440946134191      2.55845670647504      1.19872454226964
  H   -3.77536220041374      0.86603230774021      1.55581578090791
  H   -0.50747335937822      3.79428805614419     -1.21567413784003
