22
Coordinates from ORCA-job ./opt_b97-3c_parallel
  N   -5.06820778723509     -0.60236564676214     -0.13150443755228
  C   -3.92622668281556     -0.39753860120882     -0.06474002075217
  C   -2.53425276568684     -0.15236009840106      0.01538139793536
  C   -1.79108856690548     -0.94463553582761      0.89695626860456
  N   -0.48716343854524     -1.09416565052357      0.93445188880796
  C   0.46069612192386     -0.42862613555813      0.30249194548719
  N   1.50347624140896     -1.10816938512099     -0.15880730861521
  C   2.76081498901498     -0.72125641555339     -0.19224720809022
  N   3.61899217531880     -1.55801256151656     -0.82190512697888
  H   3.23299298380723     -2.35086426485161     -1.30351454931243
  H   4.53159004777112     -1.24270575665013     -1.09043434821460
  C   3.30352377684315      0.42743777169916      0.45916179045788
  C   2.56930707737486      1.52931579669469      0.79435559122227
  N   1.31221751631436      1.85405932508660      0.45129831183994
  C   0.36752623068916      1.02406359309037      0.07325214814088
  C   -0.76144689909325      1.49799753980922     -0.64263509020148
  C   -2.00889146556694      0.93858507941521     -0.71446811436564
  H   -2.72409188597281      1.46032890169465     -1.33724423766407
  H   -0.60244361445445      2.43110134965388     -1.16822140608291
  H   3.08324440273068      2.31582683106153      1.33773995736062
  H   4.36724133739587      0.44347631930248      0.65737555207641
  H   -2.34241763121750     -1.55914098953368      1.60049005219711
