31
Coordinates from ORCA-job ./opt_b97-3c_parallel
  N   -3.94841767607748     -1.64143201213706     -1.96212339891492
  C   -3.23041057294470     -1.02793655947285     -1.27660248036758
  C   -2.39905885820053     -0.27748472305364     -0.42779363093496
  C   -3.00939238454676      0.74853103183772      0.29080372308023
  C   -2.34311155781267      1.73433752837337      1.09462040313323
  C   -1.04372675078362      2.10159886141248      1.01379608614580
  C   0.02360713668747      1.44684137469779      0.32633711725442
  C   1.07569659709678      2.21821109228220     -0.08697936388020
  N   2.13718434094455      1.87188932112225     -0.84374471967986
  C   2.73882247094673      0.72137747012792     -0.79254772631621
  N   3.73097040256342      0.49426335133409     -1.69627095615696
  H   4.07930261578214      1.30255111190061     -2.18213915836487
  H   4.38559788479921     -0.24999937978835     -1.53335510084270
  C   2.50761352857628     -0.33708446994158      0.19210995006288
  C   3.61206795405413     -1.08527562330009      0.63098367295392
  N   4.50944174928316     -1.73912823634489      0.98746212927475
  C   1.24880408131954     -0.67386125697137      0.65947572754340
  N   1.10020402817196     -1.61583436145489      1.61408328798507
  H   1.88921951917618     -2.17659353771593      1.89276917676352
  H   0.19059426886179     -2.02543761693706      1.73322119745621
  C   0.02290914029638     -0.01756498635891      0.17584374388766
  C   -1.04057713364504     -0.77045510875503     -0.22242327714312
  N   -0.89574710802874     -2.14627637272808     -0.39861421052049
  H   -1.67190354760361     -2.60236156424185     -0.84989070488832
  H   -0.01785872340311     -2.43339725631817     -0.80073475157747
  H   1.02479703022021      3.28165893786370      0.13034001593630
  H   -0.78613420515913      3.03325298701633      1.50890284077852
  H   -2.99747314680446      2.35836278618420      1.69108403267986
  N   -4.36041605625866      0.88239312931157      0.24193371443612
  H   -4.89062356230395      0.32397542784171     -0.40575628189477
  H   -4.76972621520838      1.76087912081319      0.50160126811076
