30
Coordinates from ORCA-job ./opt_b97-3c_parallel
  N   -3.37119992707236     -2.33068144849201      0.29616234974105
  C   -2.53618684067656     -1.22431341893617      0.16927912185956
  C   -3.17328372618907     -0.00034194822393     -0.00147319094720
  C   -2.53629301636252      1.22371634113791     -0.17199606560156
  C   -1.16902595415789      1.50211534381560     -0.15841107552312
  C   -0.00006295316348      0.73167879578508     -0.00084640228925
  C   1.16879605845293      1.50224420123187      0.15686311180281
  C   2.53610058119528      1.22402838076468      0.17039094734005
  C   3.17325657720034      0.00008782327940     -0.00036132286545
  C   2.53632515856714     -1.22393808287086     -0.17133709408069
  C   1.16905323012319     -1.50233808708060     -0.15828676982254
  C   0.00003608381641     -0.73193015355756     -0.00098239117684
  C   -1.16887699729643     -1.50252485087243      0.15618182084630
  H   -0.96146411040958     -2.56287545614615      0.25269378158913
  H   0.96178439737488     -2.56269922809538     -0.25499163981745
  N   3.37148829008965     -2.33017009663936     -0.29842743482422
  H   2.95298117840191     -3.13319184252315     -0.73655804419615
  H   4.28505342962585     -2.13397275689722     -0.67098673535650
  H   4.25696921340620      0.00016081840858     -0.00017238722166
  N   3.37107042846208      2.33037263507411      0.29777074965539
  H   2.95230323212692      3.13333956474741      0.73575317335302
  H   4.28453284100952      2.13429942617182      0.67064690732110
  H   0.96135094880810      2.56257764982776      0.25349435568722
  H   -0.96172450977639      2.56249503856419     -0.25484315943708
  N   -3.37141200225692      2.32997153541512     -0.29917291731859
  H   -2.95275203691148      3.13307569448309     -0.73700641877881
  H   -4.28484701576062      2.13384388820178     -0.67208777428994
  H   -4.25699645141378     -0.00041660360005     -0.00166897241178
  H   -2.95258589924347     -3.13373059810037      0.73414034774002
  H   -4.28479406996965     -2.13467925817334      0.66875294242309
