23
Coordinates from ORCA-job ./opt_b97-3c_parallel
  N   -3.62560915192897     -0.66008513107503     -1.19264174062251
  C   -2.56395392844626     -0.29398297652455     -0.41898670861259
  N   -1.47597809691756     -1.00838383197532     -0.56014564477747
  C   -0.27316269481333     -0.75212283160330      0.00020128988448
  C   0.50502969672189     -1.76678296761912      0.50709885783828
  C   1.87058060099521     -1.69161864338383      0.84105302266738
  C   2.79951709363559     -0.76040771735021      0.47589099241026
  C   2.53324224399635      0.34190654124980     -0.39965372575257
  N   1.38931268813454      0.95031229517799     -0.56404170005228
  C   0.23024668712929      0.64067389646044      0.03995999307557
  N   -0.44831717640468      1.60017168033525      0.60752020356897
  C   -1.73964568945222      1.55827270642432      0.98052708194872
  C   -2.75554379473654      0.79570253292835      0.49079924979593
  H   -3.76815970499825      1.05155424076020      0.77719711085201
  H   -1.99842562986722      2.31204865208282      1.71835936404766
  N   3.57465332614742      0.80384260766552     -1.15541775501218
  H   4.50733131522094      0.52289449838362     -0.91764277843200
  H   3.47074495871018      1.72382989859327     -1.54524790308412
  H   3.83336710496123     -0.94353953876551      0.74139950839591
  H   2.25346696574992     -2.53824648892483      1.40025539321024
  H   0.01146966042417     -2.71967719672251      0.65160436535839
  H   -4.53467269958919     -0.28938675392113     -0.99027096249260
  H   -3.58628963887216     -1.56754299909763     -1.62153680041588
