23
Coordinates from ORCA-job ./opt_b97-3c_parallel
  N   4.63378638702590      1.23456766571982      0.28963067145029
  C   3.54267128174786      0.89819105751501      0.06547911857175
  C   2.23750827800562      0.41975193987757     -0.16531407190794
  C   1.35551408129794      1.24363390937698     -0.89795374651560
  N   0.05965370000969      1.19594106084981     -0.98138969184459
  C   -0.76343156093132      0.28093370728628     -0.45271546547557
  C   -0.44212310880015     -1.14035600906702     -0.50111393324652
  N   -1.39501162778814     -1.99828110410573     -0.97933364851728
  C   -2.61849339953428     -2.04189593741014     -0.58045163853095
  N   -3.23230820764010     -1.40063976128925      0.45053244953337
  C   -2.91439878482811     -0.17635948028071      0.76195349416830
  C   -1.93737117368191      0.69361132561305      0.18612498358932
  C   -2.09861963321388      2.07780312952023      0.43990505064056
  N   -2.27352351577063      3.20099496797170      0.67638145905562
  H   -3.52275683894228      0.27222308194021      1.54225002101711
  H   -3.26420761292992     -2.73605006727117     -1.11046425123121
  C   0.78007384218059     -1.63014843842046     -0.13707091086768
  C   1.96339254244158     -0.92213435948341      0.19989859659082
  N   2.93704375609799     -1.63155994129874      0.79644077357342
  H   2.80824302212867     -2.60193417253101      1.01277189449106
  H   3.83973798326809     -1.22687760433117      0.97840587187913
  H   0.84195793602059     -2.71118552880012     -0.09840816988389
  H   1.81554320153924      2.06818990961601     -1.43365209654020
