25
Coordinates from ORCA-job ./opt_b97-3c_parallel
  N   -3.75343618569806     -2.49751212839562     -1.27601097069896
  C   -2.88015639332508     -1.86098998245957     -0.85281961926741
  C   -1.82636674687290     -1.06345237176912     -0.32483809000765
  C   -2.23733964348413      0.17025373951149      0.30995878637895
  C   -1.46019204755300      1.25617424812251      0.53727687494381
  C   -2.06780058743051      2.39202707085537      1.14030118982815
  N   -2.53415735947929      3.33863165209659      1.62324962700615
  C   -0.08257928259709      1.43365564353638      0.11687458951043
  C   0.84358499694729      0.47556887945202     -0.07996771047327
  C   2.14938270281350      0.85530655394922     -0.66787516940288
  N   2.09697297345683      1.77433739351264     -1.67115723735749
  H   2.91168427731584      1.91309693615434     -2.24345298477798
  H   1.21578237926623      1.92834300795960     -2.12743962983859
  C   3.34406633280878      0.42883509906244     -0.15768458000722
  C   3.53272714997857     -0.51410640256828      0.88617018620893
  N   2.78264707713502     -1.51259885978719      1.24769289086969
  C   1.59450908172161     -1.79436444390154      0.66008257189646
  C   0.65337181708536     -0.96612984448021      0.12061017804718
  C   -0.56602529734551     -1.57066212303987     -0.37410125531177
  H   -0.46431294563936     -2.56304864710875     -0.79927934761524
  H   1.32834554632783     -2.84697147322866      0.71752697887286
  H   4.47873444712375     -0.44017696353616      1.41829159089821
  H   4.24230804034437      0.91359145408444     -0.52538675012698
  H   0.21483779364935      2.46311678853165     -0.03467876952258
  H   -3.28017437544958      0.23011157164677      0.58885308094787
