28
Coordinates from ORCA-job ./opt_b97-3c_parallel
  N   -3.08665906629350     -2.60109549649257     -1.67886914378035
  C   -2.59816565566205     -1.68493610432570     -1.15373279834991
  C   -2.00883006604061     -0.57205535760702     -0.50789947954904
  C   -0.66900090154788     -0.77825893835191      0.03074586014912
  C   -0.33479013610329     -2.03456028415399      0.46333141281550
  C   0.89242217910678     -2.51718308000305      0.96235338054963
  C   2.14468945059532     -2.01274102743577      0.82485668169773
  C   2.51565830380775     -0.89271021917411      0.02257324495656
  N   3.83992825098146     -0.80690242180912     -0.28332513805228
  H   4.39342113691031     -1.64276979427951     -0.24252022295842
  H   4.14484553524261     -0.11478465723870     -0.94726149182353
  C   1.64506001860909      0.10527787165731     -0.41181931862443
  C   2.20142826429261      1.09319020162266     -1.24455519257949
  N   2.72139199937275      1.88544497634497     -1.92433054290924
  C   0.26470113872710      0.34597323448801      0.03223021920689
  C   -0.05416287320421      1.64534750229247      0.30595093943910
  C   -1.30453078942891      2.29508194734703      0.52040683146466
  C   -2.54762149068921      1.78762604173471      0.18620779237719
  C   -2.80881651453881      0.54469816716407     -0.37878954776193
  H   -3.81624295378509      0.42007065520762     -0.75665935311054
  H   -3.39820492850945      2.44742895149092      0.30506893513855
  N   -1.22765022443924      3.55180681848894      1.05108176106137
  H   -2.03060576229139      4.15132651385203      0.98591831374877
  H   -0.34322882815536      4.02675064215782      1.04120780735124
  H   0.79767513968448      2.31305143041287      0.35836557952380
  H   2.96256302851027     -2.57273373410792      1.26088442337639
  H   0.82278678784962     -3.45818785900974      1.49600336274447
  H   -1.14462815880436     -2.75184948687453      0.48516623659082
