26
Coordinates from ORCA-job ./opt_b97-3c_parallel
  N   -5.23076878260746     -0.42921332446060      0.27454393014106
  C   -4.06938256876367     -0.35578698810365      0.25432933777375
  C   -2.66945989218281     -0.18851787294849      0.19997072417360
  C   -1.87166061135570     -1.24823957367460      0.61934910850556
  C   -0.50748411315160     -1.43391482349033      0.56366063761592
  C   0.52400616421416     -0.58958247674075      0.12672422011942
  C   0.35297723591829      0.85717515426942      0.04011737512969
  N   1.35594351447657      1.71757553167304      0.29253964812209
  C   2.65230838240675      1.57821857412385      0.16257892721984
  N   3.39045094791104      0.66978491922456     -0.54642955940848
  C   2.94984207866716     -0.54829580751649     -0.69002958224056
  C   1.75636757740806     -1.18132305530324     -0.26182763966296
  C   1.79635746822934     -2.59184253731098     -0.37760525788078
  N   1.85291554990793     -3.74914544923048     -0.47653191721089
  H   3.64785985360598     -1.21192307927930     -1.19317752610243
  N   3.41589755296258      2.51677480642298      0.75248902729590
  H   2.98369795258667      3.28700885525519      1.22697393202414
  H   4.40684853470681      2.50330213951117      0.60171450980190
  C   -0.85514322255960      1.48247735292689     -0.26708934807164
  C   -2.18798185188538      1.06326959569904     -0.28373616718655
  N   -3.10497839591696      1.95193775621656     -0.72880475393962
  H   -2.83016759904783      2.87940004135745     -0.99036448398270
  H   -4.08893554310956      1.76297992604908     -0.65282963076659
  H   -0.71350890732180      2.53750922277528     -0.46954574098287
  H   -0.18987772395709     -2.43047513907165      0.83862927904163
  H   -2.42511294764552     -2.10147581467492      0.99014515947176
