23
Coordinates from ORCA-job ./opt_b97-3c_parallel
  N   -2.81540920659532     -2.12053451575652      0.58261760026749
  C   -1.96964470787008     -1.11133435145474      0.23817391017023
  N   -2.53902089420325      0.08045557937108      0.19996794167728
  C   -1.85336507131537      1.16164924677178     -0.22883816427594
  N   -0.57324807529994      1.48502753140714     -0.16689264593462
  C   0.49479396733355      0.70608639768306      0.04373720676755
  C   1.63203316839975      1.37433458138149      0.51559682561288
  C   2.96415550251006      0.98801754910702      0.63493303756087
  N   3.63373036202035     -0.06193905329183      0.19486350073306
  C   3.01725326507242     -1.07137146329743     -0.44228747506344
  C   1.69514964359953     -1.38985003108760     -0.61417844693399
  C   0.49400569158835     -0.73365970443732     -0.20846518263203
  C   -0.64835098107232     -1.50081961743249     -0.10836884429428
  H   -0.50913396959202     -2.56708427385642     -0.24004851087906
  H   1.53208130445996     -2.34906805973103     -1.09401825640092
  H   3.71379637751344     -1.79833580771188     -0.85246573164208
  H   3.59382149584195      1.71865946920016      1.13852341525712
  H   1.42187284455304      2.38916542947290      0.83068744677152
  N   -2.65105567351478      2.13107546412325     -0.73476105613584
  H   -2.26452061171225      3.04744139336753     -0.86459289104793
  H   -3.64421050793792      2.02033515656588     -0.65249899016997
  H   -3.71450485831533     -1.84708539911336      0.93808836824423
  H   -2.44244505376334     -2.99583770498115      0.90010928034857
