24
Coordinates from ORCA-job ./opt_b97-3c_parallel
  N   4.89666067794012      0.94054468079128     -0.06347911765384
  C   3.75598891207242      0.74398909504797      0.06767771229270
  C   2.38472674097880      0.45360319487885      0.17973364431701
  C   1.91312502228998     -0.78741894212793     -0.32399348086447
  N   0.74301250574936     -1.36522786659955     -0.05262272183594
  C   -0.40803481277448     -0.84281984896425      0.32569660251688
  C   -1.40936793301164     -1.73410892987633      0.76321239417040
  C   -2.77815687049928     -1.58345665454825      0.68963070748053
  N   -3.55235569266003     -0.65766280993452      0.13104029510783
  C   -3.11224600199049      0.51988430518232     -0.30997145417506
  N   -4.04527880219147      1.23450913029912     -0.98696477947607
  H   -4.99272428302733      0.90249444147135     -0.95419546491883
  H   -3.88387150027979      2.19106204996070     -1.23912842198934
  C   -1.86529563639907      1.15104544276848     -0.07597134828038
  C   -0.67596990214918      0.60486064017345      0.34470059321501
  N   0.24641980016532      1.46364331179637      0.85009463160407
  C   1.54380730919576      1.37501370445635      0.82979033126553
  H   2.05262655121704      2.16335039121006      1.37836129938014
  H   -1.85077039107573      2.23227006669090     -0.15351950683211
  H   -3.34907785680417     -2.42177613759230      1.07946162427192
  H   -1.05153758002394     -2.70616029614162      1.07829055856233
  N   2.73252265616653     -1.53339431022340     -1.09171282458455
  H   3.68226363156041     -1.25107326335247     -1.25835071922612
  H   2.47337526886825     -2.48786861948126     -1.26259557637651
