26
Coordinates from ORCA-job ./opt_b97-3c_parallel
  N   -3.26319299071885     -1.87486917678417     -0.84804765792032
  C   -2.37049762974525     -0.94224417094069     -0.36235289886701
  C   -2.81998270198858      0.35480456812453     -0.21171203959461
  C   -2.07322775052333      1.46736171216944      0.20860046152072
  C   -0.69796928623224      1.56162453506250      0.37920186621059
  C   0.32669692444847      0.61323303077425      0.19405342923442
  C   1.60252477621135      1.09418191389764     -0.10046804905906
  C   2.81507996737477      0.40490489898020     -0.28934212846831
  N   3.17883875967242     -0.81309042413394      0.12038349939350
  C   2.32345894059005     -1.59094056730412      0.78679515937711
  N   1.02446390213042     -1.65052056681229      0.86016325966959
  C   0.08304834912001     -0.82546789523010      0.31373479150528
  C   -1.09206013818895     -1.44975256707982     -0.03280465829648
  H   -1.02204580945316     -2.52997491054891      0.02628712827383
  H   2.82215340272326     -2.37166035770299      1.35914161705683
  N   3.81131828813822      1.07202642538617     -0.94731264715865
  H   3.75010340543061      2.06751580030846     -1.05674896378493
  H   4.73267410929942      0.68573528002469     -0.83689883652911
  H   1.64133157005179      2.15322420155625     -0.33083176435955
  H   -0.33939769337720      2.56928058347357      0.56364861173617
  N   -2.79425768771838      2.64435994621119      0.34863405100931
  H   -2.34826672253157      3.36654182101855      0.88758993291975
  H   -3.76590126355253      2.53669186184888      0.58279832667732
  H   -3.86005803311788      0.54266348538058     -0.45381047999433
  H   -4.24136484212779     -1.65935035845606     -0.76717972618566
  H   -3.04976868951515     -2.84083549022431     -0.67390121126573
