29
Coordinates from ORCA-job ./opt_b97-3c_parallel
  N   -0.46523646082530     -4.09954076967826     -0.80742492206238
  C   -0.10872162047921     -3.01322945402536     -0.60488473552279
  C   0.37671855380539     -1.69695789595802     -0.38044319249684
  C   1.73729094385184     -1.50689407668463     -0.61389635430897
  C   2.57549577776306     -0.44674250199057     -0.33100056857851
  C   3.94756495738307     -0.62855539751921     -0.61989343639025
  N   5.08777216925887     -0.72572975691065     -0.82882035016102
  C   2.22053911683981      0.78861521974721      0.31117371912583
  N   3.24141872055582      1.55457126672851      0.74131446066858
  H   4.19306886212751      1.27440309229354      0.58275080024723
  H   3.07716791723335      2.46992919644503      1.12189296830820
  C   0.90638966404592      1.26299663329955      0.47730126783125
  C   0.81034389981110      2.55755827501546      1.02679130171955
  N   0.78992067565593      3.62794587566925      1.48605634186418
  C   -0.34528633535466      0.68940143539035      0.04154647402802
  C   -1.35003627586226      1.54987575316882     -0.33054823348641
  C   -2.72707181513871      1.28648125555360     -0.60198340073579
  N   -3.48464836941457      0.29111418546942     -0.17092396797898
  C   -2.95144412634913     -0.72112724903676      0.52850673535435
  N   -1.74264406045252     -1.26204520818071      0.44767584513328
  C   -0.59315373116750     -0.75610814533262      0.05130582881337
  N   -3.80395974598986     -1.35949028696725      1.35448871960442
  H   -3.54850035860880     -2.26968909073623      1.69223236776677
  H   -4.77479287221173     -1.10843328879531      1.32107020343289
  N   -3.37775686457695      2.21938875325957     -1.32647445409957
  H   -2.92001536679065      3.04569445648428     -1.66001125142411
  H   -4.37068645667803      2.13098003609563     -1.44434966601302
  H   -1.05928707773396      2.58336770737207     -0.46465648729262
  H   2.23704923724002     -2.36812752246275     -1.03633957394076
