25
Coordinates from ORCA-job ./opt_b97-3c_parallel
  N   -2.09903189334691     -2.12255928262040     -2.07304638173615
  C   -1.91462748917655     -1.25751271922869     -1.31943946836129
  C   -1.71116324535576     -0.13940617061712     -0.47109257856080
  C   -2.86322198269741      0.61633241002609     -0.21576760043583
  N   -3.07113487081562      1.67074450835279      0.54894519983181
  C   -2.08424076213744      2.41624582322428      1.05027449785023
  C   -0.72864004591229      2.41144678610734      0.80843207215376
  C   0.08672558563656      1.45672065447152      0.16316101790797
  N   1.28330780280215      1.86440486790288     -0.22237539466364
  C   2.34993370393291      1.12148951572575     -0.51321039363572
  N   2.75174153770784     -0.04465620318946      0.00845059426869
  C   1.90778364351263     -0.95555487606214      0.45557267309796
  N   2.47760767068347     -2.00159109018817      1.07229118121361
  H   1.94499842936492     -2.81090192426279      1.33971135755913
  H   3.48040846006684     -2.05255111492565      1.07838649648482
  C   0.46643972145292     -0.99979086995826      0.27583293239519
  C   -0.11676641963685     -2.25954971090157      0.52801486022252
  N   -0.49739638677977     -3.31767039018094      0.82703398438482
  C   -0.37527987421764      0.08163653636291      0.00451623346344
  N   3.22424999207057      1.69067904770247     -1.36083914038508
  H   3.07767930763595      2.63821662257178     -1.65514530152195
  H   4.10790372305220      1.24610377136773     -1.52598739996853
  H   -0.17310423992343      3.26543622211123      1.17674434223399
  H   -2.43710459831095      3.21853774294530      1.69187485543048
  H   -3.76177553330828      0.22880779736340     -0.68623743482884
