28
Coordinates from ORCA-job ./opt_b97-3c_parallel
  N   -5.11525598843639     -0.68389480595336      0.56550417482779
  C   -3.97711798768847     -0.57003592244694      0.35196487306659
  C   -2.60203108730061     -0.34552442346066      0.12844503465314
  C   -1.85632267350876     -1.38888708766605     -0.43535855160052
  C   -0.50262079340106     -1.54622222499202     -0.61379072276679
  C   -0.11524038347995     -2.77371493181596     -1.20821707109486
  N   0.21019283667834     -3.78293109041753     -1.68475405324058
  C   0.59004967983278     -0.67970836428154     -0.17786787306716
  C   1.77154828372267     -1.29649214209347      0.12933992358270
  C   3.03687047410205     -0.75323892321815      0.50804018139489
  N   3.54992659908259      0.43803487825733      0.23949620593061
  C   2.85978582390242      1.41330665181116     -0.33864083373748
  C   1.50281748370952      1.62068477886245     -0.52263818265578
  C   1.17029690650199      2.87876904216914     -1.08121818926471
  N   0.88964967388536      3.91470393058089     -1.52914549915047
  C   0.38260678453404      0.76398921474767     -0.14716253432088
  C   -0.79657450386876      1.40157708547383      0.14087503739981
  C   -2.11180807575389      0.94617382450892      0.40689888671717
  N   -2.96333820312543      1.86596234398606      0.90078928904566
  H   -2.67795345144161      2.82129942747511      1.00831210042607
  H   -3.94074252715330      1.65755709573535      1.01441850133027
  H   -0.70994883727151      2.47935834261045      0.19294692772153
  H   3.48671763089364      2.23251345507936     -0.67622868743526
  N   3.86919600760291     -1.58772506637579      1.16117722254659
  H   3.62103723866171     -2.53692781096595      1.36621716471177
  H   4.80876184753466     -1.27911252423164      1.33785595158780
  H   1.74144384522699     -2.37830254016174      0.12759923400946
  H   -2.45104243654313     -2.23521151251633     -0.75263051861849
