30
Coordinates from ORCA-job ./opt_b97-3c_parallel
  N   -3.67117368898063     -2.08381280151710     -1.52349699001287
  C   -2.89356846151809     -1.37611555383376     -1.01689874635240
  C   -1.98443721349425     -0.51006036958450     -0.38841311339642
  C   -0.74392220841447     -1.07891195416428      0.09559661673262
  N   -0.77160967303447     -2.44641499445642      0.40021612180254
  H   -1.59885583291644     -2.91995453703868      0.07176467123530
  H   0.05380049458688     -2.94617986995136      0.10792896043825
  C   0.39416948583046     -0.35986997603317      0.28577960333652
  C   1.59217171644468     -0.93045867784261      0.93439251850970
  N   2.79216031434860     -0.88449287880066      0.44197082373028
  C   3.07041388869753     -0.22120235821968     -0.72832732064622
  N   2.67566575616075      0.95744103397958     -1.13870835301662
  C   1.63292396166440      1.61007463211573     -0.57137424773785
  C   0.53806676661151      1.07231422572389      0.03227414957187
  C   -0.48991132831898      1.93296469043330      0.62065405665786
  N   -1.77925863018524      1.78575307817653      0.51322733763765
  C   -2.38776907309169      0.81928184400751     -0.21818531591976
  N   -3.55674032264794      1.24265853648111     -0.76649632265803
  H   -3.92387924710871      2.10525840110824     -0.40868026614836
  H   -4.21551023457020      0.57171765339210     -1.12226352970646
  N   -0.05805891352410      3.00392374817925      1.32612896392729
  H   0.88820565989421      3.02429745452335      1.65593115688628
  H   -0.74327778331941      3.56252262394138      1.80614781099451
  H   1.66461271133493      2.68784199800782     -0.70171301448644
  N   3.99326478769614     -0.86869915519124     -1.49812722688478
  H   4.44771986451251     -0.30551157484816     -2.19579322413450
  H   4.55974551266994     -1.55470894358963     -1.03237659471864
  N   1.42172408306559     -1.48383807519278      2.16082977093155
  H   2.19791850277114     -2.00157565659511      2.53860514564430
  H   0.50028856643604     -1.81440080260842      2.39243210568337
