29
Coordinates from ORCA-job ./opt_b97-3c_parallel
  N   -1.93703455356421     -3.58025382492120     -1.47217541443718
  C   -1.84172277762953     -2.50499085433859     -1.03740670967409
  C   -1.73985468841803     -1.19768220085504     -0.50174158599833
  C   -0.41786563209038     -0.79205351812053     -0.06834013880413
  C   0.47452992246241     -1.80091154607377      0.20447332828923
  C   1.85037630605867     -1.76161468857633      0.54658197118838
  N   2.75540939262491     -0.82129698384088      0.34959562852045
  C   2.49592808598255      0.37458462994410     -0.18849408393337
  N   3.61871698359738      1.00320987611129     -0.60424052691558
  H   3.61086059543157      1.96459237551776     -0.89422614189715
  H   4.49318761816873      0.57169732823605     -0.36929336534391
  C   1.26074453519830      1.06431607464952     -0.31640810694627
  C   1.38126286475762      2.39762753317673     -0.74988246109085
  N   1.54374055671730      3.49305345045999     -1.11653521156879
  C   -0.07450772032610      0.62641469984902      0.01530984863074
  C   -0.96128704655429      1.63409816303649      0.35637725284653
  C   -2.36204712704735      1.69965000391447      0.47753466675706
  C   -3.27119488659580      0.71391744524150      0.09702995754581
  C   -2.95620237686161     -0.53073313234232     -0.39794868768834
  H   -3.80393715877320     -1.11119041430220     -0.74016690834496
  H   -4.32381325741062      0.95948469110401      0.15894317984084
  N   -2.86399592145039      2.86640340512856      0.98664065975065
  H   -2.27160588032225      3.67744280846127      0.99872268246040
  H   -3.83976138290116      3.06205098460486      0.85324292602746
  H   -0.47851119381533      2.58292396987588      0.55345838216903
  N   2.34278462791135     -2.88347495846948      1.13074911206672
  H   3.34098453424038     -2.97033824226370      1.19733635413968
  H   1.79335947528912     -3.72087839240089      1.17393771316550
  H   0.05448272651789     -2.79730054510615      0.20885766534623
