29
Coordinates from ORCA-job ./opt_b97-3c_parallel
  N   -3.48451675365138     -3.45742941743263      0.84024462207858
  C   -2.67264578567638     -2.68677100890410      0.52750664010261
  C   -1.72975254924618     -1.68716851739224      0.19318054010033
  C   -0.65472873041850     -2.07808300623006     -0.64092152153173
  C   0.54344937550212     -1.45608652455802     -0.83676330745553
  C   1.44721960736522     -1.98664061254193     -1.78703049735197
  N   2.18796444740344     -2.39002960813637     -2.58550126318524
  C   0.96996103813332     -0.26116230248554     -0.10815251865839
  C   2.18849804072525     -0.20082430802933      0.53265427103996
  C   2.91977340983537     -1.41179808572228      0.68432085274928
  N   3.52936582241404     -2.38012609659366      0.87394687414953
  C   2.78376549634276      0.94134638198211      1.15498638411478
  C   2.55079451910038      2.25070460402497      0.87399342364111
  C   1.68776624666370      2.74462367505266     -0.13128903113493
  C   0.60634221589329      2.11066321607454     -0.66426246616196
  C   -0.04942985575337      2.66813957631809     -1.78802793033267
  N   -0.58662847132912      3.09986411214135     -2.72266564945774
  C   0.04561658109450      0.85345082135605     -0.13202564763164
  C   -1.27466812745323      0.78800595163503      0.21547120297302
  C   -1.99850482178824      2.00797702782333      0.27330967933800
  N   -2.63538799349611      2.96890191002284      0.40926791839735
  C   -2.02844785430955     -0.39084659264611      0.62855838614180
  N   -3.11843312706652     -0.17083354316659      1.38074642024063
  H   -3.76060278583609     -0.92114250181991      1.57511127246148
  H   -3.42827960810307      0.76426077579913      1.58072878238507
  H   1.91250165738845      3.72723611507449     -0.52651755776166
  H   3.18343883009078      2.97812298841199      1.36458520912842
  H   3.58354161827904      0.71938830108111      1.84826598086034
  H   -0.78736702470658     -3.02399788084158     -1.14879760593654
