27
Coordinates from ORCA-job ./opt_b97-3c_parallel
  N   1.98870904014733      3.59135887833786      1.29255012555134
  C   1.86029286457988      2.48621158474836      0.95276734639313
  C   1.69780053643678      1.14853163525190      0.52201302813905
  C   2.83087016781290      0.34340864335712      0.69362323477802
  N   3.12962589753086     -0.86452604552897      0.26659460528201
  C   2.23114178226591     -1.59342447294134     -0.42381450007440
  N   0.90576996970295     -1.57032043774963     -0.40679558282507
  C   0.04917519632545     -0.62924268983392     -0.05460957985964
  C   -1.24649633269955     -1.09453796297685      0.27127626122910
  C   -1.35232615605544     -2.48399998868298      0.50194173131453
  N   -1.54861259506288     -3.60814006502715      0.73000905016069
  C   -2.47184511008677     -0.36204694679632      0.33284666932384
  N   -2.75500811956472      0.83776482997587     -0.16603394006729
  C   -1.87278958036323      1.74464289444709     -0.55410722271204
  C   -0.47422139874964      1.79932815566582     -0.32708662927753
  C   0.39753678400043      0.79593654782608      0.01496342514009
  H   -0.04620565982350      2.79095619035345     -0.39478790303490
  N   -2.42029711440139      2.81319882551767     -1.18015252097971
  H   -3.42030269269984      2.90401159636833     -1.16526948032081
  H   -1.87348247798149      3.63005006356165     -1.37738296964613
  N   -3.53750318569872     -0.97878289646602      0.88323013520689
  H   -3.49511565904943     -1.94396211283774      1.15939838793540
  H   -4.43671846743600     -0.55557888156771      0.74282103301083
  N   2.77111079192839     -2.56237216150335     -1.19124423831566
  H   2.17201798205317     -3.28745907424230     -1.54146155636867
  H   3.75471426963627     -2.73918357078032     -1.10009545707701
  H   3.64161133544731      0.82451411442126      1.23260181719385
