24
Coordinates from ORCA-job ./opt_b97-3c_parallel
  N   -2.06409542463805     -2.98410266650458     -1.08483134979785
  C   -1.86847400139616     -1.88767666170186     -0.75439261276125
  C   -1.69693002627925     -0.52804707959736     -0.38166519184793
  C   -2.84741725118375      0.27864110268567     -0.55188700164552
  N   -3.14310484193569      1.48208830784981     -0.13468481594378
  C   -2.26661802597391      2.27095975553024      0.52211731649168
  C   -0.91277749112578      2.19980258780618      0.66831325797979
  C   0.02122109009955      1.20361686395809      0.23958865954994
  C   1.32753863263810      1.58504849576840      0.04820052130100
  C   2.45744737211267      0.79170118907778     -0.31744024235705
  N   2.65819259461117     -0.50255028785404     -0.15971775303937
  C   1.71161189060520     -1.28358113913431      0.40165174316497
  N   0.39148865780559     -1.20957925330097      0.36950627383334
  C   -0.40227567041423     -0.18698322229589      0.08332723873838
  N   2.19704573787089     -2.38248669851955      1.01412231408431
  H   3.17571635835941     -2.58411522132981      0.92699117254557
  H   1.55907846786883     -3.12633941178431      1.23210635140199
  N   3.51903008853167      1.47162832095064     -0.81592390099823
  H   4.29256850662558      0.92746144052710     -1.15500590270117
  H   3.40245623107383      2.39750831728864     -1.18279350345733
  H   1.52112699867891      2.64866527716711      0.11596881899194
  H   -0.45951196297287      3.06396346171511      1.14141479436284
  H   -2.73361621797721      3.15422563979143      0.94815714308574
  H   -3.65800351678323     -0.21930325639341     -1.07690098867918
