27
Coordinates from ORCA-job ./opt_b97-3c_parallel
  N   5.22606831623115      0.64068142202165      0.31890657530303
  C   4.07935917199374      0.44901052286442      0.27794635845343
  C   2.70676545397554      0.14067499287815      0.17890599382604
  C   1.77345386827191      1.07767109935029      0.56210788834767
  C   0.37547322780910      1.07429752644710      0.44051981981730
  C   -0.23919607048516      2.27970984339331      0.87147299603690
  N   -0.70338269201152      3.25972827870069      1.28747014253663
  C   -0.48372881224952      0.00677531368832      0.06958312116617
  C   0.01327069840991     -1.36679712294128      0.15240629498527
  N   1.20400232542063     -1.72465276245902     -0.32287165464554
  C   2.34697121718072     -1.10337573269874     -0.45906126018343
  N   3.27118674339320     -1.70886164917150     -1.22505414660017
  H   4.19053565076872     -1.32264186017405     -1.34223815890415
  H   3.07664777952965     -2.62534312405368     -1.58473476558652
  C   -0.75694252219705     -2.37155832304352      0.74045269065385
  C   -2.11573877449221     -2.38243146119010      1.01345648984401
  N   -3.10713821724072     -1.62807593529116      0.58153555396792
  C   -2.96373427138493     -0.54476447794084     -0.19101682098942
  C   -1.80136138240029      0.27901187261566     -0.36209589845545
  C   -2.03054454074732      1.49165080125358     -1.04749712315145
  N   -2.30720921626109      2.41884066112006     -1.69392013266292
  N   -4.10250700292682     -0.16117534017106     -0.79098261900804
  H   -4.17128006931543      0.69824154207329     -1.30772107678695
  H   -4.94172645732962     -0.65167054737678     -0.53832797905082
  H   -2.45412020951320     -3.21199013764649      1.62820167606299
  H   -0.20564890402772     -3.26338953562440      1.00936840164189
  H   2.18234597321028      1.99060430788383      0.97283115059559
