22
Coordinates from ORCA-job ./opt_b97-3c_parallel
  N   4.45760693975331      0.80979974786925     -1.85986961560148
  C   3.57906445269139      0.39319405390793     -1.22616084710986
  C   2.49009597518501     -0.09593984673355     -0.45729777693275
  C   2.40473036648002     -1.45314746450440     -0.26357978190751
  N   1.65651662727892     -2.06682721917287      0.68561945314391
  C   0.50660799607073     -1.70822167429065      1.10433836874558
  C   -0.32791832779836     -0.64742427018320      0.49382553255501
  C   -1.60165707684980     -0.88003497641769      0.09977893931501
  C   -2.48974523806379      0.10065338383585     -0.45799917351794
  C   -3.57818983252488     -0.38044491063219     -1.23265297410784
  N   -4.45629163151645     -0.79044071812628     -1.87126196247553
  C   -2.40454006503220      1.45577066072935     -0.25006787453258
  N   -1.65698302355838      2.05952669526554      0.70598397500850
  C   -0.50735486313847      1.69658657593307      1.12172339080359
  C   0.32760668799465      0.64220886534363      0.50076702759170
  C   1.60162398106801      0.87889829416493      0.11005136646090
  H   1.96961579182019      1.89557008115857      0.17056461691601
  H   -0.12536275186572      2.18341390462405      2.01637694911122
  H   -3.10570445298470      2.10696763312827     -0.75442531251992
  H   -1.96968744895619     -1.89727907563032      0.14946734200735
  H   0.12399938926106     -2.20431702898915      1.99361821452661
  H   3.10622300518691     -2.09905950068086     -0.77423443978098
