27
Coordinates from ORCA-job ./opt_b97-3c_parallel
  N   -0.44554661447132     -3.89117639085318      0.96718101177878
  C   -0.71902017782379     -2.77805817739089      0.77288569412096
  C   -1.01356371741314     -1.41933779435906      0.50764790816353
  C   -2.35456947655782     -1.06095248800120      0.52774719770973
  C   -2.97515115000208      0.12347778589926      0.14201644093030
  C   -4.38380558778464      0.15946953501157      0.08174782628944
  N   -5.54063342460635      0.25051079906688     -0.00422423432338
  C   -2.27433589931121      1.28084908627743     -0.32552898623798
  N   -1.02459882972480      1.59293671141121     -0.02567204376274
  C   -0.03359740931943      0.86747771180555      0.42356775792127
  N   0.89366382127019      1.51658432769820      1.13658381913979
  C   2.18795738154413      1.42637836747271      1.08973293503143
  C   2.99208226444270      0.67430217629085      0.21382552020875
  C   4.35843365761689      1.00756067880555      0.12468811631165
  N   5.49222816274427      1.24055503673707      0.00613874312525
  C   2.55866706746780     -0.51138025716983     -0.43427179222630
  N   3.45486087038762     -1.19625400605748     -1.17439015785954
  H   4.42093130870451     -0.91739163408723     -1.19739650831893
  H   3.23660703730949     -2.11594637797175     -1.51000036240019
  C   1.28514111475637     -1.10355503024719     -0.27180055871888
  C   0.10693668401193     -0.57319850359442      0.20185673591938
  H   1.23059849617160     -2.14035737896271     -0.58114141633071
  H   2.71662997526769      2.04647564721689      1.80729145600357
  N   -2.93389495630981      2.18400966412076     -1.07118882018834
  H   -3.91746657627475      2.08615131276441     -1.25137426108900
  H   -2.50093631336306      3.07526027084828     -1.23263283245642
  H   -3.03218402993193     -1.85294792593320      0.81627547675743
