22
Coordinates from ORCA-job ./opt_b97-3c_parallel
  N   4.66839276646948      0.21736848352266     -0.60758414853617
  C   3.51225974590187      0.28736283837379     -0.48853753187444
  C   2.11459981659780      0.30462283685200     -0.30948534627991
  C   1.51118229369629     -0.87201767550563      0.27258874446408
  N   0.23987488161323     -1.19557742804246      0.21722805848319
  C   -0.80022878791054     -0.50414705043005     -0.21302732167013
  N   -1.74453461888898     -1.17411468410165     -0.85684872456559
  C   -3.04890567146373     -1.04500341949244     -0.83814587164864
  N   -3.83982957546030     -0.36731101800452     -0.01146667748567
  C   -3.38068496780799      0.70259809173614      0.64482642226854
  C   -2.16833011041525      1.36920800010859      0.56538396194971
  C   -0.95163022356361      0.93500012247388      0.00381733895894
  C   0.09687180390032      1.80776662087193     -0.28138708415654
  C   1.42820893714356      1.49606829933900     -0.51213276614207
  H   2.04925397511802      2.32439830423852     -0.82897898043589
  H   -0.15842097177871      2.85843217950129     -0.33506166739307
  H   -2.14124966632937      2.34103079135809      1.04461190108809
  H   -4.13097887514093      1.17763858972225      1.27031386153157
  H   -3.57071088908453     -1.64225696631886     -1.57997739459502
  N   2.31467105783000     -1.74345827472180      0.91088095586930
  H   1.93546871383289     -2.63460201462329      1.17406948193667
  H   3.31147245013741     -1.62215428435600      0.91609650333236
