20
Coordinates from ORCA-job ./opt_b97-3c_parallel
  N   -4.75554871686868     -0.52009672989685     -0.53703029550395
  C   -3.63189142171245     -0.30479433722949     -0.33549945208772
  C   -2.25762869338660     -0.07043227632826     -0.09201720203296
  C   -1.69750899846782      1.13129489116174     -0.50325829921451
  C   -0.40600241812175      1.61684478988194     -0.28295372585199
  C   0.71081716554150      0.90087062365432      0.10938037676440
  C   0.65368573561256     -0.55503706095377      0.18749538659020
  N   1.51801609169166     -1.33740878808322     -0.37959442265525
  C   2.76982814018445     -1.06227134754911     -0.75193771206008
  N   3.60504295465621     -0.16345196085179     -0.29041332138340
  C   3.19442234638312      0.92838007375411      0.39232788379498
  C   1.94566868275782      1.48706669642783      0.50458548669112
  H   1.89593259212925      2.47893237630193      0.93876911698572
  H   4.01369257768354      1.50317550336503      0.81150149311500
  H   3.18322724757592     -1.76321463511301     -1.46958142542163
  N   -0.31812022439357     -1.12590744936567      0.94229676166496
  C   -1.58788285668068     -0.97534604722936      0.79375506583325
  H   -2.21870056558190     -1.56212162076145      1.45545487271338
  H   -0.25182643729739      2.66693324674780     -0.49751106377337
  H   -2.37928833270594      1.81956638486731     -0.98641565046808
