29
Coordinates from ORCA-job ./opt_b97-3c_parallel
  N   -4.86147446719437     -0.48314065097727     -0.85377706062818
  C   -3.74810898396733     -0.33202147478562     -0.53560375693931
  C   -2.41607418863073     -0.13071633494853     -0.15399702929800
  C   -1.80241172182031     -1.11200944319921      0.70849762980346
  N   -0.53224197231386     -1.35521110611816      0.86487983858375
  C   0.52111761079319     -0.69481359934602      0.32594922417767
  C   0.56020575863605      0.77738453680380      0.31369399517875
  N   1.65202448797234      1.44899871669012      0.73285521633670
  C   2.91146903091791      1.18036684729149      0.49134640797202
  C   3.46058159352279      0.16497700876725     -0.32533218394473
  C   2.84413264963992     -1.03609202144489     -0.60642022148348
  C   1.56265848218046     -1.44815626902746     -0.15111738957154
  H   1.35589250911908     -2.51102703122007     -0.19884336299866
  N   3.52578862456518     -1.95910321678371     -1.36625622015247
  H   4.52453440322249     -1.86677293679429     -1.42316928815600
  H   3.20562378733014     -2.91010930788970     -1.33099170112643
  H   4.47666680031467      0.31073012393646     -0.67189290895817
  N   3.80682484992106      2.08306785107572      1.02920719730796
  H   4.70601765204914      1.72324299352445      1.29722632483406
  H   3.39242859620627      2.71125015533594      1.69781722867140
  C   -0.52989064242510      1.52530662795390     -0.06990713863816
  C   -1.82057967804634      1.10706872379673     -0.45907362833021
  N   -2.55908101638768      2.01568420695979     -1.14605429773865
  H   -3.54466141996442      1.87554459614844     -1.28184280207469
  H   -2.20537811674672      2.94373263774098     -1.27649043741050
  H   -0.33541694725952      2.58911381085002     -0.13474758222140
  N   -2.64718832928051     -1.89927430951316      1.43376696922027
  H   -2.25819711727125     -2.75143421678353      1.79497451013339
  H   -3.62852542768245     -1.89998664654397      1.22080150664859
