24
Coordinates from ORCA-job ./opt_b97-3c_parallel
  N   -0.78315804428431     -3.69552469111112     -0.11365773574629
  C   -0.74027906412074     -2.53147606707165     -0.12579678561094
  C   -0.75465051739986     -1.12348392423352     -0.15781707325515
  C   -2.04158903160094     -0.51147000314752     -0.35119853780955
  C   -2.35413779639922      0.81849115153142     -0.10285803507880
  C   -1.46962104949887      1.83513144849131      0.28444134077209
  N   -0.15980860141108      1.91439393929309      0.05505732792355
  C   0.65298077857630      0.94775003693605     -0.28875361945672
  N   1.72244005336884      1.27102314482970     -1.01884705415917
  C   2.96200304501865      0.87420654486118     -0.92998864673855
  N   3.57698440978725      0.15413616476719      0.01071782474951
  C   2.88091106527595     -0.70413940912409      0.75312142235479
  C   1.54858059901994     -1.09532526120514      0.69628480165339
  C   0.46489697783887     -0.46419272080877      0.06474372924969
  H   1.30914298581727     -1.98825796083314      1.26045473842253
  H   3.49125555171631     -1.25835384609194      1.46066412797856
  H   3.61129070432649      1.23342058916588     -1.72331115815284
  N   -1.98129585875441      2.93474395119632      0.89709902201571
  H   -2.97335513469941      3.05529308371189      0.97569247530271
  H   -1.41092574226047      3.76120358076373      0.90613099796127
  H   -3.40507673677480      1.07974431691949     -0.13511668252694
  N   -3.04933428529860     -1.33293225424531     -0.74445421485467
  H   -3.99712458185848     -1.01286110872447     -0.67240691904571
  H   -2.91578729068409     -2.32945126397087     -0.72562117864858
