29
Coordinates from ORCA-job ./opt_b97-3c_parallel
  N   -3.09059787737506     -2.97558029463768      0.97592509455155
  C   -2.33217292468328     -2.15994414787877      0.63503099414514
  C   -1.37442775358372     -1.21563666915768      0.21735766156141
  C   -0.05122270419307     -1.63120258440169      0.21691127867183
  N   0.27599145665179     -2.88291438650970      0.59115133409317
  H   -0.41745667790638     -3.51434847811062      0.95808075282090
  H   1.23999438743799     -3.10130673791661      0.76029272419186
  C   1.05793460906732     -0.77636114167595     -0.22125099699831
  C   2.04927819937461     -1.29646868111909     -0.99404253588990
  C   3.24922182722798     -0.61231164383205     -1.35061098919212
  C   3.85305472830408      0.35857257338878     -0.61968541883249
  N   3.54736001967895      0.72854801418030      0.66785333894195
  C   2.34945355771705      0.79549506701255      1.11375805495915
  C   1.11764490666877      0.56652603907280      0.34153319409526
  C   0.11149106402600      1.47875853621965      0.32843335344872
  N   0.29819991661444      2.71711827373188      0.92023615736940
  H   -0.40533831310261      3.40961087269286      0.72539131708735
  H   1.22862258620563      3.09507742304918      0.86037908207962
  C   -1.18733594266846      1.24921166220007     -0.28121293654700
  C   -1.86382588975119      2.37382813697353     -0.78734384152693
  N   -2.45543151483300      3.29334871530909     -1.19162419854589
  C   -1.87725232385490      0.04367101578181     -0.30389570917532
  N   -3.13373502874948      0.00024680302397     -0.80950680463749
  H   -3.68193759530430     -0.83622513212056     -0.72906079854999
  H   -3.63205439058367      0.85488977636047     -0.98764574746184
  H   2.23932579762488      1.00967175418777      2.17785393315080
  H   4.77490516048362      0.79269426478290     -0.98848753309588
  H   3.76796853312462     -0.95607810593728     -2.23759114324035
  H   1.90758957408160     -2.28870078406151     -1.40770790486737
