31
Coordinates from ORCA-job ./opt_b97-3c_parallel
  N   -4.02128124195048     -1.19584232187284      1.54292124663907
  C   -3.07749180329861     -0.75759098234118      1.01525448152526
  C   -1.95899176572651     -0.21399403141141      0.36076753394308
  C   -2.01469456626833      1.14235995687850      0.02899913894980
  N   -1.17038257512473      1.82396925838974     -0.78714101626230
  C   0.10945756326994      1.60313440060259     -0.84775370554032
  N   0.82092104250523      2.24476433722838     -1.79950192976615
  H   1.81685513696227      2.30865074265047     -1.68332884797303
  H   0.36305402897356      2.97044668714414     -2.32486954851832
  C   0.84744917967239      0.65713379626606      0.01173292445452
  C   1.93262321076292      1.02892716322395      0.74953024144866
  N   2.31774331176510      2.37719470613029      0.82814928249530
  H   1.55050535930357      3.02263764843501      0.93819828355825
  H   3.02207987150901      2.54819245726208      1.52681881232245
  C   2.76977997197428      0.07884267823221      1.42262646883965
  C   2.99315247887281     -1.20792727506958      1.04610439111907
  N   2.57635876624145     -1.87946399045478     -0.05993213174763
  C   1.45775338527742     -1.62240074454876     -0.66567892649587
  N   1.23630133262522     -2.16942114028248     -1.88899013844700
  H   0.27742430341613     -2.29167368316905     -2.16967526856381
  H   1.88560364284016     -2.87951627296738     -2.18528591248211
  C   0.40514687051869     -0.72003832810181     -0.13902334934934
  C   -0.88411464296275     -1.12073077507400      0.00982195488813
  N   -1.24442015252755     -2.45592808128076     -0.22487789318557
  H   -2.17701924680633     -2.68407363371267      0.08284669394714
  H   -0.58492623948819     -3.12238948814162      0.14682018205537
  H   3.69042535440556     -1.77861114478235      1.65137334177936
  H   3.34329678421995      0.44147255727905      2.26903192993311
  N   -3.04560792278684      1.91506498952542      0.48094818909662
  H   -3.20590178427006      2.75687141010233     -0.04307070733383
  H   -3.86577507520455      1.45827592746079      0.84321498537044
