29
Coordinates from ORCA-job ./opt_b97-3c_parallel
  N   4.26335883409055      0.11833200124510     -1.75484771566363
  C   3.28073668458788     -0.15482883312798     -1.19485488010416
  C   2.07860511216479     -0.42794650796610     -0.50045815486315
  C   1.82464997861127     -1.74284558906317     -0.18146004540365
  N   0.87053244604288     -2.26833159804550      0.60763700732819
  C   -0.30276044956658     -1.72658166674012      0.77562126003110
  N   -1.08679588720954     -2.17603349188848      1.77582406127103
  H   -2.07394966658061     -1.99379453674528      1.73154591516407
  H   -0.77844428634874     -2.98034021156333      2.29575577636620
  C   -0.83170169435964     -0.61297081757738     -0.04417145145778
  C   -1.99355201179526     -0.70700253562203     -0.75208508039995
  N   -2.69260536838119     -1.92164633042940     -0.81370074217002
  H   -2.10616132429609     -2.73537453999279     -0.92033917498375
  H   -3.42748876032884     -1.92511931370713     -1.50169499427183
  C   -2.58780571895580      0.41831143514479     -1.41331476857586
  C   -2.47312254797715      1.72305372717212     -1.05077245754838
  N   -1.88345205944469      2.27250739411389      0.04515168318698
  C   -0.86715581469875      1.74022231483018      0.64715067995590
  N   -0.51520198745846      2.18894849556021      1.87892873356900
  H   0.44463266058170      2.07323189298974      2.15836802494012
  H   -0.98260242203701      3.01862421159789      2.20555048818713
  C   -0.06846919112401      0.61041000949394      0.10230820916370
  C   1.27055207214902      0.71507162710238     -0.10538966031977
  N   1.94024968086862      1.92316685057202      0.11901971090181
  H   2.87881382022188      1.94219756601048     -0.24931433136185
  H   1.42879982114892      2.73560623674388     -0.18995884968279
  H   -3.01495471384656      2.44731692327626     -1.64991533884151
  H   -3.25328808006920      0.20455246489759     -2.24273218851694
  H   2.54931618869657     -2.46900003226436     -0.53256478632606
