30
Coordinates from ORCA-job ./opt_b97-3c_parallel
  N   -1.91375566115778     -3.43257479714809     -1.74822119755481
  C   -1.83222409721029     -2.40230179437000     -1.21226608939059
  C   -1.73691856258176     -1.15613348229662     -0.54932854027741
  C   -0.40864918926151     -0.79164938131102     -0.06314275126164
  C   0.43931981120427     -1.82314637836804      0.22753882934423
  C   1.80682736721576     -1.84175211765707      0.61810219923929
  C   2.72472968874942     -0.82639701885525      0.47868109991175
  C   2.52171714910089      0.42483002345331     -0.12936936862435
  N   3.65878344973929      1.13417723324869     -0.39308793967285
  H   3.58903273677782      1.98221660397158     -0.92976317417760
  H   4.51830776201770      0.62743513120774     -0.49574101685936
  C   1.28533786336946      1.03746742457970     -0.41192026141846
  C   1.36406644622525      2.29566249427948     -1.03521735362907
  N   1.49050405467579      3.33324441777102     -1.55409363860226
  C   -0.04603975184058      0.62296030158407      0.00324674026326
  C   -0.90207413432599      1.64150579368848      0.35573010587237
  C   -2.29944984259943      1.69862280340896      0.57554223594067
  C   -3.22317978874862      0.72245293501958      0.22881681226631
  C   -2.93832581578414     -0.49572232096824     -0.36263044411729
  H   -3.80312651116926     -1.03948589579088     -0.72286595872010
  H   -4.27076144376204      0.95955078870146      0.36623090170649
  N   -2.76173647775775      2.85529988888923      1.14440709252009
  H   -2.16593621303974      3.66374565292754      1.12873336330391
  H   -3.74244925271316      3.05909122538367      1.07141083411172
  H   -0.41005181644693      2.59699914530162      0.48963398728730
  H   3.73881964513032     -1.03371177968527      0.79969028383582
  N   2.22637968351117     -3.02172877485665      1.17874761187093
  H   3.21238225176713     -3.21127638318273      1.20215898922254
  H   1.65184584666845     -3.83420205608935      1.04472641985483
  H   -0.01443349106028     -2.80526762833892      0.19049127935406
