26
Coordinates from ORCA-job ./opt_b97-3c_parallel
  N   -5.02871438271438     -1.43392599427697     -0.95688363504896
  C   -4.02839417093657     -0.97951563740664     -0.57781619436707
  C   -2.83433426033260     -0.39064590158146     -0.09774767827211
  C   -1.63314203010176     -0.85075400703760     -0.56109809467420
  C   -0.33462012693598     -0.37139197415828     -0.19891327183222
  C   0.72617327037780     -1.23530199689336     -0.25229453548913
  C   2.08299610556109     -0.99319765392694      0.07295598491630
  C   2.90882662477969     -2.10526244209563      0.33341343443195
  N   3.63515622784915     -2.98665066273854      0.56029657726048
  C   2.69274204959000      0.27479631030845      0.11978242610449
  N   2.19987568521599      1.40905733552251     -0.42512147308365
  C   0.95207476584447      1.73932625121111     -0.52576043081890
  N   0.65258704009182      2.83193477826952     -1.25458924444619
  H   1.38270372960294      3.27625720102156     -1.78461850290233
  H   -0.30126781350625      3.04084250799614     -1.48017651650982
  C   -0.19982174000362      1.05847923084490      0.11860530779477
  C   -1.07935715044303      1.80074486661522      0.81330259885648
  N   -2.19598739912927      1.38347881972943      1.52000810498058
  C   -2.97436463512455      0.46934746460204      1.08494128332357
  H   -3.85426931400229      0.25999816293364      1.69035009031560
  H   -0.88053200667102      2.85953763265965      0.93758634639656
  N   3.93934850760538      0.41046945105893      0.62112597299345
  H   4.47274842692907     -0.40361198051534      0.87366762147719
  H   4.44176079341932      1.24872740662513      0.39238372310759
  H   0.49528401587520     -2.26383719063947     -0.50010005910609
  H   -1.66839311883910     -1.69992884252912     -1.23565703590756
