29
Coordinates from ORCA-job ./opt_b97-3c_parallel
  N   1.29761378807230      4.20527604785377     -0.50809615946606
  C   1.30143135943698      3.05267222081641     -0.36204502193745
  C   1.32295632595513      1.64490167965025     -0.18158141116575
  C   2.55115275866072      1.05500757362270     -0.51271333890138
  C   3.01489444398895     -0.22519100856563     -0.30218388406423
  C   4.34191930192983     -0.55075340787667     -0.64773603523750
  N   5.42994823605146     -0.88089798393964     -0.89400834759514
  C   2.25643039483799     -1.19851400219006      0.44640299573929
  N   0.95565595155511     -1.21857832522567      0.56833842943694
  C   -0.03189172195553     -0.41172844536728      0.18868720244851
  C   0.09356312994436      1.03745042610504      0.20363688149367
  C   -0.96830672906179      1.86794427165531      0.58495858077558
  C   -2.32411479829763      1.63269393567355      0.61479898554595
  C   -3.07412476389338      0.54109209381600      0.18687046754022
  C   -4.47972002572345      0.68318777435209      0.19259552803375
  N   -5.64104736949197      0.74400338276672      0.17416176120473
  C   -2.56741234812052     -0.70502158788171     -0.27883473540187
  C   -1.20523859480417     -1.11045671918509     -0.19393124229877
  C   -0.98254524323074     -2.48659421506707     -0.44948272990032
  N   -0.91398454464067     -3.61968938205899     -0.70192871170545
  N   -3.45219024921660     -1.59291661292059     -0.75779814900815
  H   -3.16512500688514     -2.52095640070945     -1.01817420483140
  H   -4.43795446572095     -1.39509030496779     -0.73504268535797
  H   -2.91826950126888      2.47081078774502      0.95476310468674
  H   -0.68932588079325      2.88059691490990      0.84103885370270
  N   2.92508102139059     -2.18072384623771      1.07016769787376
  H   3.92259162603590     -2.26728716633419      0.99086206542712
  H   2.40109174060570     -2.93538163189363      1.47591991488696
  H   3.26731808643955      1.73329316735459     -0.95650632472422
