25
Coordinates from ORCA-job ./opt_b97-3c_parallel
  N   4.69574781576210      0.54664300017268      1.07370563054026
  C   3.62678663736546      0.34684250414890      0.66619303090192
  C   2.33037457560192      0.07461069086705      0.15206648835358
  C   2.22468944936776     -1.09703246214907     -0.70105844682140
  C   1.12118834812247     -1.77560037307482     -1.04796019335873
  C   -0.22723434603167     -1.58039128963455     -0.54422537169805
  N   -0.99149121989248     -2.74825236806421     -0.45802971402438
  H   -1.98356558132479     -2.61867317005613     -0.58095066181685
  H   -0.65444523084631     -3.50622399697540     -1.02747854715348
  C   -0.70261524480371     -0.40044103088429     -0.08114130006831
  C   -2.01561213295036     -0.32944078056222      0.62815631909963
  N   -3.02881562775187      0.37201010633182      0.22604918930022
  C   -2.89757789315641      1.34333241562114     -0.71960429989731
  N   -1.92179356937439      2.17363372721970     -0.92014513801439
  C   -0.69488805983831      2.04796839377009     -0.35163778695571
  C   -0.01911857466712      0.89304541626373     -0.06237529071021
  C   1.34507318440111      0.98313570013462      0.38562962961151
  H   1.62747231993494      1.88563682415472      0.91705966740243
  H   -0.16205159926434      2.98657052597087     -0.22971618121496
  H   -3.80327490369332      1.52585693387535     -1.28971733882756
  N   -2.10609164797064     -1.03349138594952      1.77559442843239
  H   -2.98769112896564     -1.03806036862474      2.25994250749897
  H   -1.47607980039996     -1.79908207610390      1.93582414905180
  H   1.26207910897138     -2.63281738894844     -1.69796485863041
  H   3.16717109270394     -1.45371893990338     -1.09698550250072
