26
Coordinates from ORCA-job ./opt_b97-3c_parallel
  N   4.13557318026008      1.39223131052784      1.39419125758569
  C   3.22313832278143      0.81977986671323      0.95791518988542
  C   2.09970894181496      0.14230064871856      0.41978752603698
  C   2.18115092318715     -1.22713224353632      0.31494513468705
  N   1.35968098738588     -2.06128290681377     -0.35417963789479
  C   0.10231041994249     -1.83259235957454     -0.56883247378752
  N   -0.54076996683887     -2.55255821938836     -1.51391089188318
  H   -0.04144436252031     -3.29055743014655     -1.98004531984327
  H   -1.54248508098121     -2.55610002229742     -1.54297640582868
  C   -0.71874122827987     -0.80188786712569      0.12711842880955
  C   -1.75653019645186     -1.16434854740520      0.91544331543824
  C   -2.73056322936752     -0.30402994696924      1.49226931948374
  C   -3.07517251553759      0.92156776125325      1.00930351622152
  C   -2.53636226691864      1.62490002587923     -0.09739990059709
  C   -1.31299168321505      1.46607135076459     -0.68932806617857
  N   -0.93173883223851      2.25167073127252     -1.74837850673504
  H   -1.65407456007029      2.68256072159923     -2.29976114793601
  H   -0.13140889353621      1.94688775497241     -2.27336276047750
  C   -0.28176696685142      0.55873733094692     -0.16343416827046
  C   1.00602822437384      0.95980396653282     -0.03116721106320
  H   1.23399657025618      2.00251970646048     -0.21203496731263
  H   -3.15317596099137      2.42947265655082     -0.48455741637726
  H   -3.93007040819461      1.39817154783312      1.47606247496706
  H   -3.32703508815666     -0.71155903740974      2.29822348281330
  H   -1.87375223917674     -2.22595750277615      1.11306285639663
  H   3.07389260472461     -1.70267186028221      0.70284148406024
