23
Coordinates from ORCA-job ./opt_b97-3c_parallel
  N   4.80903251485694      0.27974615424464      0.87490864502293
  C   3.69273326655450      0.15821633140311      0.57451825815278
  C   2.33192185977210      0.03672461236756      0.20150803473677
  C   1.70109611482844     -1.16015935806091      0.40824571508048
  C   0.38016601672001     -1.52207141971884      0.07010844079573
  C   -0.72158825701215     -0.74696572607456     -0.19626471339724
  C   -1.93695173013719     -1.44312856627239     -0.59293517284820
  C   -3.22203275024033     -1.15720442887926     -0.28977961350198
  C   -3.74134819657293     -0.04058300403361      0.42789907110128
  C   -3.08901018825023      1.12748590934157      0.64643596011525
  C   -1.77991974123794      1.48502798462020      0.22427489068479
  C   -0.73079631962611      0.70849178675178     -0.17619073685043
  C   0.44561280603209      1.40578990456537     -0.70877628052367
  C   1.74683499519569      1.15248632210148     -0.50343395898084
  H   2.45460031029242      1.85975703744295     -0.91846014848962
  H   0.21268190288331      2.27892738927292     -1.30767570671123
  H   -1.57665855543302      2.55042610371135      0.24126691197342
  H   -3.64959501255140      1.92018000327431      1.12809145891082
  H   -4.77283637179525     -0.11027705109344      0.74892249191495
  H   -3.95696288228405     -1.88346834078935     -0.61912918325366
  H   -1.76474530495658     -2.35608868320088     -1.15219370111081
  H   0.19338936722189     -2.58969159695483      0.08505019720307
  H   2.30525456093984     -1.95421879631888      0.82922747857553
