29
Coordinates from ORCA-job ./opt_b97-3c_parallel
  N   -3.83354327439159     -2.71765503454294     -1.58012959636670
  C   -3.19115652207105     -1.90632222638200     -1.05191230999560
  C   -2.38930550741415     -0.92977239927109     -0.40801447162052
  C   -2.99790894085286      0.25502974636560     -0.05750414859472
  N   -2.52941976930139      1.23199668341782      0.74473040402208
  C   -1.26740846404600      1.50176166804553      0.89383282737289
  N   -0.87876958889097      2.25708113557985      1.94333205297422
  H   -1.59550614251620      2.66451829059935      2.52049597744617
  H   0.00359398591275      2.73472621304173      1.89057332029873
  C   -0.18021929031870      1.01185301560534      0.00481733683442
  C   0.54991174319864      1.86602866337424     -0.76047694249321
  N   0.24020247221340      3.22733534857953     -0.78644133372278
  H   0.69790077449773      3.74046955165380     -1.52089597403026
  H   -0.74402433726638      3.44269544597132     -0.75280883834502
  C   1.71280073714530      1.46979517318283     -1.51004949333808
  C   2.55340594898886      0.45665662928689     -1.21084816677844
  C   2.47432488492215     -0.50531959313768     -0.14817941016174
  C   3.67469155817680     -1.13805544109704      0.24101965415072
  N   4.62859317057869     -1.69122207618966      0.61333010655247
  C   1.31387373987849     -0.92799093037773      0.48446072821429
  N   1.34054113013150     -1.86937316018694      1.44784933653599
  H   0.49915382729043     -2.10119971940767      1.94022043756296
  H   2.21258012372916     -2.22255291138191      1.80578595071922
  C   -0.00954654681170     -0.43256948776384      0.08112871378839
  C   -1.03532064630715     -1.30010418044609     -0.10302722629640
  H   -0.82431915728738     -2.36191139502951     -0.07411033994042
  H   3.44896545657617      0.38012014114008     -1.81496631011073
  H   1.99779127472251      2.11527027194994     -2.33279238926706
  H   -4.03435825138415      0.38120339062217     -0.34699466701057
