29
Coordinates from ORCA-job ./opt_b97-3c_parallel
  N   -0.21815856081777     -4.16754536031667      0.96642935570144
  C   -0.62357023299733     -3.09994654429189      0.75362915371130
  C   -1.16600219707890     -1.81143370353632      0.51777541506809
  C   -2.52301332570926     -1.65364495809609      0.85359566046531
  N   -3.39822825059861     -0.73816086066863      0.54022621363176
  C   -3.13924488059774      0.38723348591599     -0.15692613487633
  N   -4.25395224070630      0.93808051806904     -0.67610990366557
  H   -4.24328257659524      1.83444639239354     -1.12919667757180
  H   -5.13297297989254      0.54050669734645     -0.39870740295083
  C   -1.90412138788456      1.05838710210876     -0.31378082752766
  C   -1.99352915294338      2.37686735186166     -0.79976842285123
  N   -2.11929883878736      3.46021118080211     -1.20989226957119
  C   -0.58716849378340      0.58601575278484      0.01445779532174
  C   0.38386121476968      1.52475970665886      0.29248323938502
  C   1.78183719302045      1.41969383537648      0.47213785316975
  N   2.38805628578523      2.49847128149790      1.01209166646573
  H   3.38959083809813      2.56068730850526      1.06394596312944
  H   1.86202181799599      3.32477465740079      1.22403357479715
  C   2.59545259786494      0.33812578134772      0.07684815686787
  C   3.98662848360422      0.47143599156276      0.19471278243153
  N   5.14133445226293      0.59908519753628      0.29096075900009
  C   2.08081182714791     -0.81470700823811     -0.58524529462395
  N   0.86851010394268     -1.31395987774866     -0.46754586524859
  C   -0.27016017200299     -0.84425562154364     -0.00028536723863
  N   2.91358835974690     -1.53458969516075     -1.36464167026521
  H   3.88767161083272     -1.30088798025930     -1.43424168082274
  H   2.62840846324801     -2.46556000649614     -1.61127124938834
  H   0.00897017194030      2.53083502140776      0.43038132876477
  H   -2.94262086976471     -2.47841743852004      1.42199720009110
