24
Coordinates from ORCA-job ./opt_b97-3c_parallel
  N   4.87869495940712      0.45879742804778     -0.04267736390516
  C   3.72028202739914      0.39781292926547     -0.14420257379246
  C   2.32032964757838      0.26455813452555     -0.22433480139546
  C   1.62388791861195      1.20769102115249     -1.02003329783939
  N   0.36089483291522      1.50021062669868     -1.04082672248848
  C   -0.58191981825942      0.91810762004748     -0.26626505557481
  N   -1.40628602955007      1.67779909063931      0.38802468729537
  C   -2.55463159901112      1.29036754180301      0.97823994783822
  C   -3.37561727998448      0.25744412587703      0.64810212003559
  C   -3.03055997300379     -0.75869165066895     -0.30254130608374
  N   -1.82081593926112     -1.14548238028307     -0.61882143774142
  C   -0.67194624754613     -0.55541502243911     -0.22599132020288
  C   0.40339865411560     -1.31125432839427      0.16837108224239
  C   1.74667558175611     -0.90286273753726      0.33856157647150
  N   2.56114563338186     -1.75728343814769      1.00038421109191
  H   2.22452228887773     -2.66147029024823      1.27161757207788
  H   3.55720516588318     -1.62022973314335      0.99471071848565
  H   0.18964963023487     -2.35635008569013      0.35978015471234
  N   -4.05603821499014     -1.47716974369848     -0.84526946619425
  H   -4.95389785617702     -1.03714469869888     -0.93152644374073
  H   -3.80359240045708     -2.11560067972776     -1.58051861356479
  H   -4.35518122151503      0.21133330923276      1.10590606959831
  H   -2.89094339481371      1.96853626771889      1.75572893984641
  H   2.24290685321015      1.79652667597189     -1.69123346077051
