30
Coordinates from ORCA-job ./opt_b97-3c_parallel
  N   4.05699237924773      1.66229288860221      1.72402489814098
  C   3.20661389386567      1.14763155066251      1.11548650388145
  C   2.21773922599008      0.47994457251171      0.36723845776925
  C   1.00178853449529      1.19343675210154      0.06599245825507
  C   -0.19912830647158      0.65051765000738     -0.23263329310228
  C   -1.28019463447644      1.52475139710796     -0.71509912908164
  C   -2.60199406439095      1.35958229264296     -0.43324895119726
  C   -3.20111718600285      0.38269043226044      0.42412381659803
  C   -2.69999208219455     -0.85483096949161      0.73002371876589
  C   -1.53837710996855     -1.45689826902481      0.17189661849475
  N   -1.53538169925222     -2.84646648591584      0.11866474821896
  H   -2.34882713162625     -3.30079524537030      0.49424843094560
  H   -0.67903809202496     -3.30712890145680      0.37387902417410
  C   -0.42592221675490     -0.80209151820580     -0.30707071019268
  C   0.53431766149427     -1.54558220574832     -1.08692011872624
  N   1.82388723228558     -1.49918430098734     -1.05785100449340
  C   2.53208007426811     -0.78037893294396     -0.11675579429637
  N   3.66334136793937     -1.43105091013134      0.26521130553239
  H   4.36508793582618     -0.92482139324141      0.77871373311205
  H   3.98817039353485     -2.14337624932112     -0.36404568436327
  H   0.12379310116373     -2.24026359016905     -1.82231840227016
  H   -3.29481885574763     -1.47846620979380      1.38956733540027
  N   -4.46378025150512      0.72878029265673      0.87695908671523
  H   -4.60686685332676      1.70772325240337      1.06057655945414
  H   -4.84484385266114      0.14286192487251      1.60048979607182
  H   -3.29068793328407      2.08678115139230     -0.85049845565991
  N   -0.87187677246110      2.62103766127372     -1.43811685374680
  H   -1.58104945413550      3.13885940584418     -1.92972264822902
  H   -0.00960381569334      2.52111104824766     -1.94511299085135
  H   1.07934766446831      2.27249299481369      0.10558334868036
