28
Coordinates from ORCA-job ./opt_b97-3c_parallel
  N   -1.46023441255892     -3.69087672452424      1.41146468551621
  C   -1.61343807296779     -2.59014125379544      1.06617179675401
  C   -1.78534870379721     -1.25768513091307      0.62692705002114
  C   -0.61969869212939     -0.59549954775032      0.12677744453185
  C   -0.60466621065666      0.87658556501585      0.10862089463036
  N   0.41440291325345      1.54670037649571      0.62867623852746
  C   1.70058495582067      1.29024227586656      0.62532237197283
  C   2.37914571180651      0.31629292708432     -0.17685718680982
  C   3.75062210277493      0.49612205427555     -0.40449343751733
  N   4.89355500372999      0.63306727862979     -0.59361559316136
  C   1.78976695654698     -0.90088030394208     -0.58187945096782
  C   0.47577188182775     -1.32140014773239     -0.28823867317360
  H   0.30592797335575     -2.38321886981809     -0.41648464724827
  N   2.56629289085390     -1.78745867079645     -1.25230310040489
  H   3.56147515617495     -1.65396842160820     -1.30137123143690
  H   2.23007319253504     -2.72040926518864     -1.40075111502848
  N   2.45213963433909      2.08001639573826      1.42785019050077
  H   2.02555985367906      2.91617698791442      1.78281085057433
  H   3.45446240948296      2.04366378315512      1.38596962305493
  N   -1.57250122070876      1.60745343315753     -0.40514694316923
  C   -2.87126680488231      1.38182292738119     -0.51026916092134
  C   -3.61557361726272      0.40749081499721      0.18933928498797
  C   -3.09106904934532     -0.75368509188878      0.69649916595796
  H   -3.80364368527772     -1.42195838246537      1.16329867650698
  H   -4.68777237295628      0.54124157277124      0.24852111775296
  N   -3.52920948508323      2.22663223788373     -1.34543344537875
  H   -3.05203704029993      3.05960337199598     -1.63947025309221
  H   -4.53094351345441      2.22556593355997     -1.37777898777935
