25
Coordinates from ORCA-job ./opt_b97-3c_parallel
  N   4.87498271786841      0.81476773189749     -1.01268822842070
  C   3.82713953470059      0.50886311734611     -0.61441479003859
  C   2.56151671527515      0.11334348474807     -0.10600454132073
  C   2.58835002982648     -0.94292666039131      0.89698004094629
  C   1.56897460165751     -1.72783023503368      1.28241084224532
  C   0.24729172244804     -1.75854948519513      0.70557240874434
  C   -0.38754950189066     -0.75361646451880      0.07762662975357
  C   -1.67187460438937     -1.02072978244182     -0.62696560575814
  N   -2.77612094877267     -0.37247358777607     -0.45264381315793
  C   -2.84971519816610      0.76174571238237      0.31326660039098
  N   -2.01668405115545      1.76990088246680      0.36429637243286
  C   -0.73888769001091      1.70037237410369     -0.06080022275136
  C   0.09973586066751      0.61845749901561     -0.12406961406084
  C   1.46954626960119      0.82144968647978     -0.51029891819018
  H   1.66128188495900      1.66409601516154     -1.16647187618962
  H   -0.29960995599067      2.66924594981883     -0.28182346694598
  N   -4.01815763455060      0.87689506830240      1.00119686839437
  H   -4.78190852641139      0.29834077956981      0.70133817537913
  H   -4.24443734392641      1.79639467062424      1.33755421116876
  N   -1.66041803424818     -2.05809207641306     -1.49498727631329
  H   -2.44802153586496     -2.16605253066297     -2.11171743945175
  H   -0.78111569463891     -2.44588734441214     -1.78166430666421
  H   -0.26918087612702     -2.71026039141484      0.77195850516810
  H   1.78229778651604     -2.48683152227236      2.02519528868188
  H   3.55572978742207     -1.11329102918526      1.35235152125797
