34
Coordinates from ORCA-job ./opt_b97-3c_parallel
  N   -4.16447758530129     -1.22632481512292     -2.22049814821123
  C   -3.36639620550935     -0.79095527052855     -1.48943872490134
  C   -2.42960522786757     -0.25167420516229     -0.59155253812063
  C   -2.62264837947821      1.07552486660096     -0.18899306274873
  N   -1.98986217077396      1.73310648810567      0.81408811690810
  C   -0.72974525125575      1.57524939282777      1.10285323467898
  N   -0.25137885009303      2.22096374489508      2.18922780120954
  H   -0.83682112675300      2.92111999086668      2.61308413297129
  H   0.74373801321245      2.34337580095679      2.26227258327728
  C   0.20208893346201      0.70315446734384      0.37000294743136
  C   1.41348446892827      1.14054227163195     -0.07241171210421
  N   1.75148262820725      2.49679174244141     -0.00023222585636
  H   2.59777267836793      2.73382637139384     -0.49388783294418
  H   1.00543878657197      3.12081583187973     -0.26501670118788
  C   2.43158760151139      0.25223716159055     -0.58711169092978
  C   3.37021617221298      0.78965858259610     -1.48419278314070
  N   4.16978646320012      1.22352621798739     -2.21451924679416
  C   2.62381088116091     -1.07411802849858     -0.18138790940341
  N   1.98896975557690     -1.72961561232267      0.82175610170683
  C   0.72826646195438     -1.57116462491264      1.10762749176809
  N   0.24771003170268     -2.21462274514891      2.19437107709783
  H   0.83230671915401     -2.91386482361662      2.62089254893477
  H   -0.74754951496815     -2.33684196497200      2.26572866946339
  C   -0.20207846336725     -0.70060786283544      0.37106557461203
  C   -1.41257342493720     -1.13891467802218     -0.07290823143232
  N   -1.75074739742823     -2.49499995417890      0.00140835917438
  H   -1.00416516275380     -3.11959572177024     -0.26049222793810
  H   -2.59601515637535     -2.73306462802201     -0.49349946593232
  N   3.59260260203713     -1.82724587784831     -0.76957974460577
  H   3.87854140353796     -2.64323590245685     -0.25939685626751
  H   4.29391475432377     -1.37604425742728     -1.33186083493691
  N   -3.59021403911210      1.82744040976161     -0.78074371743956
  H   -3.87717560496457      2.64449676701941     -0.27284761465934
  H   -4.29037371198210      1.37509614044789     -1.34354242647986
