18
Coordinates from ORCA-job ./opt_b97-3c_parallel
  C   2.90527313933291      0.11209021302956     -0.15637368113565
  C   2.25575402611654      0.97366938989490      0.75489053317776
  N   0.98080024029490      1.20915735847566      0.85314092203439
  C   0.01649625874567      0.64684907297808      0.09569242636387
  N   -0.91440840620357      1.38690481735134     -0.43069658341903
  C   -2.16492501320811      1.00662639574678     -0.71023102013270
  N   -2.89365380897028      0.05200584600748     -0.18313989641067
  C   -2.37062402245816     -1.00059467748203      0.48462682199763
  C   -1.08987391736920     -1.49018944154014      0.50339349820156
  C   0.04302869028291     -0.82155660340780     -0.03828471623406
  N   1.06404545283289     -1.44791542198046     -0.55985020307355
  C   2.28918897165438     -0.94257199532735     -0.78366608128811
  H   2.87823568244073     -1.53273771122403     -1.47776633655270
  H   -0.92316477092166     -2.47175931813516      0.92972720502455
  H   -3.12221085439508     -1.60647572196448      0.98026828845373
  H   -2.68646629604792      1.66715916218089     -1.39520441510018
  H   2.87602653052905      1.51249116997425      1.46633135134921
  H   3.97388632564377      0.22401321312273     -0.28203862405601
