26
Coordinates from ORCA-job ./opt_b97-3c_parallel
  N   5.22329331406206      0.09979920945541     -0.63206386602211
  C   4.08708611163695     -0.09360127928710     -0.47053681686589
  C   2.70373249482250     -0.25872179619383     -0.24481084868218
  C   2.13698256658550     -1.48192084173757     -0.58765065464753
  C   0.86939922371082     -1.97625566360344     -0.37502868810806
  C   -0.27431622078485     -1.36647149994562      0.15615138317986
  N   -1.20033468906392     -2.20554117517455      0.62972589440971
  C   -2.48820141965983     -2.04625858521924      0.81961843615986
  N   -3.35519088809131     -1.18220207746053      0.32721850005892
  C   -2.98275648458170      0.00950072167403     -0.15756500163971
  N   -3.98666341704818      0.68044879216058     -0.75144279393501
  H   -4.90576001268913      0.28179743622637     -0.68380295011009
  H   -3.88901875471834      1.63620367040755     -1.04487338017403
  C   -1.71638315276278      0.66300962206771     -0.03009205262450
  C   -1.73748415549869      2.04503863198962     -0.29735480692412
  N   -1.80478616931809      3.18464659691024     -0.53274586527356
  C   -0.43285050765041      0.08254586313468      0.21883957226495
  C   0.62321708367934      0.95266609346893      0.48670866652102
  C   2.00936343355744      0.84184025302321      0.34257204644487
  N   2.75119108810358      1.90264693078881      0.74072658592863
  H   3.72905673155727      1.95334839997308      0.51304429065686
  H   2.29993818343821      2.76342244682521      0.98877890472148
  H   0.30775537075263      1.94695408642514      0.77859492001574
  H   -2.94012806464652     -2.82422734415610      1.42965778937741
  H   0.73343754270099     -3.03193923394317     -0.57077822973129
  H   2.83140823390225     -2.18777239258956     -1.02530497369904
