31
Coordinates from ORCA-job ./opt_b97-3c_parallel
  N   -0.61164926083881     -3.74985482669589     -1.83208371389523
  C   -0.77447720612673     -2.73067506949101     -1.29572610117634
  C   -0.96110522348381     -1.49431115992174     -0.62887653508746
  C   -2.26954229747914     -1.10559664608500     -0.47563962276241
  C   -2.82684084350580      0.02993038636749      0.12552306377209
  C   -4.22543185195291      0.05379877437206      0.30617589439495
  N   -5.37255037213361      0.13989779593425      0.48441677627140
  C   -2.11372881096695      1.19631369428128      0.47585250963942
  C   -0.73626301416135      1.41657236820694      0.26092481579508
  C   0.32431483874609      0.59409563399385     -0.05600378155143
  C   0.25654991425866     -0.86389242751257     -0.11414039959366
  C   1.27850263109867     -1.70535143543925      0.21099798697417
  C   2.61838354210727     -1.45347368901367      0.62560097164966
  C   3.32399704893951     -0.28503553852808      0.46175124001623
  C   2.88471298536817      0.90004755129027     -0.15427199449326
  C   1.55047181948096      1.26837331406273     -0.43188869632936
  C   1.39342882679983      2.53800768876348     -1.01889793006391
  N   1.32901607613922      3.59501812742874     -1.50716750746466
  N   3.86105373946461      1.81048672051832     -0.42289978715051
  H   3.63716848724309      2.64227932220809     -0.94179771194785
  H   4.81173534503598      1.49733361773284     -0.47921803393222
  H   4.35956541281309     -0.29042278438488      0.78067809184463
  N   3.24315872520221     -2.51697893273358      1.21611109013416
  H   4.24410807831901     -2.51032218863611      1.29354757267896
  H   2.83237395083136     -3.42784819877504      1.12140690788318
  H   1.02936053676679     -2.75800267163336      0.17265005068970
  H   -0.45591345173315      2.45371133935645      0.39366656728806
  N   -2.80243587722199      2.22938885256287      1.01301981849806
  H   -3.80695712410360      2.20492798655644      1.05342203271879
  H   -2.36348196991103      3.12476713381816      1.11837092642885
  H   -2.99709195789283     -1.81002236050511     -0.85663563302834
