28
Coordinates from ORCA-job ./opt_b97-3c_parallel
  N   -3.97304560475197     -1.38032043940899      0.93093056303977
  C   -3.00452802726402     -0.82346067227950      0.59772297336777
  C   -1.81844987152501     -0.19363682022066      0.18212649900412
  C   -1.92251648703096      1.04128429766192     -0.60389517054724
  N   -1.14161526902477      2.07107803503734     -0.53062857458628
  C   0.01407649948652      2.12669676145048      0.18398533788171
  C   0.93337006050006      1.14841474251368      0.39176709347733
  C   2.16142374003624      1.44673048684806      1.10278748952804
  C   3.38192819855083      0.94957067846246      0.81475735444932
  C   3.70875229850348      0.08694538711475     -0.28389721562374
  C   2.89636392864902     -0.73805730943241     -0.97500129305800
  C   1.51900278688325     -1.06232065206476     -0.66766693502637
  N   1.12981175294623     -2.35993220056236     -1.02486349241871
  H   0.16521814018372     -2.44790261680429     -1.30540633418611
  H   1.73861309349177     -2.79908367846778     -1.69482325480988
  C   0.66821784195738     -0.24698022104481      0.01081460325930
  C   -0.61228153700224     -0.76786595253919      0.52633313257322
  N   -0.53743476768684     -1.81839479086401      1.37150310759594
  H   0.29828682726267     -2.37536156334894      1.35700043949589
  H   -1.37989249621561     -2.27190028680533      1.68627934696605
  H   3.34849615678069     -1.32349083725035     -1.76907870123570
  H   4.74992514848580      0.09917610349043     -0.58759880136782
  H   4.21982995852087      1.30730331309779      1.40105068617656
  H   2.09729362790010      2.17615524557016      1.90493444929243
  H   0.25679256350003      3.12388951311477      0.54000418324445
  N   -2.99284984712153      1.11688093334379     -1.45732702877604
  H   -3.77305967783994      0.50375952786729     -1.29472322046521
  H   -3.23336007887662      2.05088766482068     -1.74443083485061
