27
Coordinates from ORCA-job ./opt_b97-3c_parallel
  N   -3.68064626247364     -0.08094658911324     -1.05302360340837
  C   -2.47481266016583     -0.17810577267123     -0.41779261137694
  N   -1.78217438691750     -1.26420059195732     -0.64150565554502
  C   -0.50956433349204     -1.46302774216136     -0.19749930926463
  N   -0.20124296664217     -2.82948303706543     -0.04086025149452
  H   0.68474344563180     -3.08422632059923     -0.45466016476414
  H   -0.94136940686624     -3.38408525779435     -0.44419789348382
  C   0.43412047364178     -0.50905600569585      0.05616219960360
  C   1.76691197912717     -0.82374305966092      0.59294025108023
  C   2.90838793105920     -0.29414173001254      0.05149170132303
  C   2.97586615864190      0.64585737665796     -1.01722025042859
  N   2.14672341688999      1.57427118316443     -1.39460294608781
  C   0.96933114251517      1.80267203648930     -0.73220007166926
  C   0.16734429463840      0.91660741187622     -0.09966438059761
  C   -1.05338471643102      1.36240347408270      0.60549904631314
  N   -2.23915048894172      0.86813172456109      0.43240667931472
  N   -0.90241296631421      2.36822530294620      1.49656059042345
  H   0.02237001424987      2.62241091207079      1.78842396515718
  H   -1.67281127573625      2.58627182412630      2.10589642168894
  H   0.64085054072574      2.83711510849160     -0.78306827983297
  H   3.91197750749660      0.63200069384153     -1.57573244964566
  H   3.86293514915059     -0.66574604991348      0.41248584205657
  N   1.80518451066834     -1.65251529118327      1.67651870559463
  H   1.03601851952664     -2.29727243306591      1.77632803243984
  H   2.70050393914761     -2.00388223404635      1.97184351166358
  H   -4.34840248121130      0.54672460924348     -0.64324911880511
  H   -4.03974833121855     -0.93330570131149     -1.44574048255412
