26
Coordinates from ORCA-job ./opt_b97-3c_parallel
  N   -4.91544818979010     -0.81151187777831      0.17026244145624
  C   -3.76518104465273     -0.75345125308353     -0.00127496637845
  C   -2.37285985754196     -0.63222434285455     -0.17330251191969
  C   -1.72145250045577     -1.65556308890921     -0.90552396191648
  N   -0.46866820562641     -1.97042115239375     -0.97066340956426
  C   0.56767234264242     -1.34971733397243     -0.34332399954970
  C   1.52449186653875     -2.13254184948554      0.25844338306993
  C   2.75880383384365     -1.73878112525879      0.81169563674401
  C   3.46899651151429     -0.59857437065912      0.59300680610152
  C   3.05560858312681      0.42157041668904     -0.32345035692138
  N   1.82325395964881      0.71938877844410     -0.64960903955908
  C   0.67985599781032      0.10773578538760     -0.32789529545136
  C   -0.40607471044746      0.93879484029910     -0.01142933808881
  C   -0.09030698631143      2.30624287340521      0.15979588491365
  N   0.07846079516160      3.44332171291551      0.33838706061223
  C   -1.77255812763179      0.57829703104008      0.23674055304634
  N   -2.54974628243524      1.50362403130235      0.82701623172470
  H   -3.54248442394542      1.35895305700693      0.89583830273451
  H   -2.19868297491214      2.42917962897193      1.00196090861232
  N   4.01801426624563      1.18103418083268     -0.89520871732025
  H   3.74266458838109      2.00999886023656     -1.39057826155981
  H   4.98171518060031      1.07032447372305     -0.64628242279872
  H   4.45091632184813     -0.50467718572001      1.03844118371068
  H   3.24001338185083     -2.48369839033500      1.43474140220524
  H   1.26960706802310     -3.18223684844757      0.33213432625803
  H   -2.38153606397994     -2.30093080725648     -1.47926921095820
