26
Coordinates from ORCA-job ./opt_b97-3c_parallel
  N   5.27645844861161      1.02932023025393     -0.11173483983971
  C   4.13326070967446      0.82115672027957     -0.12981507354968
  C   2.73801696872369      0.58684113507758     -0.15582385883928
  C   1.95094094490930      1.42992138399591     -0.96131904577981
  N   0.65931054372924      1.58202088999805     -0.93366852935018
  C   -0.29200399268569      0.94888862301044     -0.24690945548378
  N   -1.26721679140172      1.69078160171376      0.22089432605804
  C   -2.54775739707398      1.38681270905936      0.38682147140200
  C   -3.24724728447813      0.31106796582543     -0.19060653019013
  C   -2.68683760541205     -0.90242489464255     -0.55592577795502
  C   -1.33338408018619     -1.29280146766422     -0.34693873702352
  C   -0.24896092679291     -0.50718474744382     -0.06559043357467
  C   0.96003109108844     -1.07500880049234      0.48898902655837
  C   0.80306417723608     -2.33326264436327      1.12203137613645
  N   0.64673705259055     -3.37260609841678      1.61888713233507
  C   2.23914207800605     -0.54588573566518      0.50046574106602
  H   2.97541673190049     -1.13771819864896      1.02733914630809
  H   -1.15664827492334     -2.36121537752246     -0.36738135530454
  N   -3.49995772600028     -1.86034403935572     -1.08698627936308
  H   -4.49532922694751     -1.75641797231585     -1.00693647486381
  H   -3.17141585959678     -2.80811438229685     -1.12140797546608
  H   -4.32514651732450      0.40179692324292     -0.25142303853203
  N   -3.24099637845192      2.28099491382193      1.13591269791915
  H   -4.23758822976175      2.21564190788817      1.21688610667151
  H   -2.81318090536825      3.17125529403120      1.31566762406850
  H   2.47282435443659      2.05043114132721     -1.68347415900946
