25
Coordinates from ORCA-job ./opt_b97-3c_parallel
  N   -4.90100588598850     -1.93665668061800     -0.22237533447701
  C   -3.83579907755529     -1.47479334252887     -0.21858443138073
  C   -2.53414729164231     -0.91352269565233     -0.22163160046475
  C   -1.54323038941230     -1.58590169524084     -0.93349786318850
  N   -0.24015991800797     -1.41507666135735     -0.84306266249348
  C   0.48451356542944     -0.42810879401845     -0.37449258547835
  C   -0.00822707485778      0.95318800011454     -0.29973242640808
  N   0.63476742525693      1.99529607925834     -0.71820912399154
  C   1.93645994758675      2.09163867083837     -1.03790232378463
  C   2.97880039210618      1.35579378672231     -0.56784606901143
  C   2.90738290465782      0.11744689907860      0.13637375118822
  C   1.77280307004989     -0.72063821476846      0.16687687647296
  C   1.95090326450250     -2.01514056128228      0.69622099827338
  N   2.19005161986242     -3.05339839315810      1.16278652931167
  N   4.04844587083490     -0.32274433036614      0.69479959898856
  H   4.10816663718222     -1.23709339502041      1.11026821040526
  H   4.89095883045496      0.21663146318599      0.63327782603067
  H   3.97243253659945      1.74033434569714     -0.76001721608183
  H   2.16960225969717      2.94982625389304     -1.65762862674257
  C   -1.25666240242971      1.14891858572570      0.41839963051410
  C   -1.33679631077612      2.36174104282844      1.14929318973225
  N   -1.40608116352817      3.34625694976381      1.76043991057299
  C   -2.34049390857407      0.30353561866707      0.46422383357055
  H   -3.18407947929721      0.65712970839414      1.04098872741949
  H   -1.84969184045004     -2.40309769165545     -1.57623163017924
