28
Coordinates from ORCA-job ./opt_b97-3c_parallel
  N   -5.26665621501536      0.19631346630753     -0.12150601862010
  C   -4.11143890988705      0.18628156614031      0.02011441297865
  C   -2.71090784661729      0.11331354989051      0.14163418173588
  C   -2.05830972908083      1.05501538122890      0.96846057787430
  N   -0.80598990477136      1.36967725107768      1.01418348823428
  C   0.24894454085024      0.88624214079755      0.32797496939694
  C   1.17431687162265      1.81347208970852     -0.14189184162123
  C   0.79388834075070      3.17985358609870     -0.08750669814721
  N   0.53302129301069      4.31131510317971     -0.07852366180254
  C   2.46305511138060      1.55438861168153     -0.67635061962804
  C   3.22990201135441      0.43938554754134     -0.60285817974801
  C   2.92975797594706     -0.79187855400055      0.05109767450545
  N   3.98130873731290     -1.62076917812533      0.24390447440252
  H   4.91598059738205     -1.27972133484895      0.12397998292355
  H   3.86945876111119     -2.48766216042288      0.74079859237268
  C   1.64765136191967     -1.22220956544154      0.41876791458559
  C   1.56478520341108     -2.52002836259798      0.95709202349590
  N   1.55845168071878     -3.59993010716114      1.39466841661613
  C   0.38799367460206     -0.55610244495122      0.14842308856500
  C   -0.68749918562134     -1.33504408615488     -0.20560905228959
  C   -2.05877276786839     -1.01984073301111     -0.38949585010020
  N   -2.79712710706278     -1.93664175795096     -1.04775951622245
  H   -3.79682085676543     -1.84448941557018     -1.10665294597830
  H   -2.39890752862422     -2.81819769980118     -1.31156534688716
  H   -0.44328373112458     -2.36552632309401     -0.43238877571049
  H   4.22285828444251      0.50827844469207     -1.02829337123090
  H   2.92788036568097      2.41012882435879     -1.14847870777236
  H   -2.69401086285732      1.60803621242488      1.65397102518006
