23
Coordinates from ORCA-job ./opt_b97-3c_parallel
  N   -0.56786748980975     -3.05028132699989     -1.83280324732382
  C   -0.87334282991354     -2.13056468438181     -1.19251610401042
  C   -1.27122189063696     -0.98753835022287     -0.45514770597342
  C   -2.62473754104064     -0.87860721804434     -0.15106099611639
  C   -3.27569620838228      0.09857330733828      0.59372992452386
  C   -2.70304697082186      1.27698422450390      1.03758042869322
  N   -1.60369166141318      1.84875996330184      0.57790484891322
  C   -0.62796488356180      1.36968941388004     -0.14301674262015
  N   0.03222340948475      2.19652791266584     -0.96818943756175
  C   1.32411405657568      2.23429939297654     -1.12321480003270
  N   2.30449873524752      1.67037991993710     -0.41444400914939
  C   2.17562951811514      0.54030151681945      0.26025360938532
  N   3.23728688019495      0.18035782555456      0.99734563507182
  H   3.29608206841055     -0.72447900858497      1.43068423271684
  H   4.07194529157873      0.73327641030432      0.91259850061697
  C   1.05924048535295     -0.39705229394723      0.20115364285264
  C   1.34808375755945     -1.72174079293728      0.59171635146098
  N   1.66111569403193     -2.76877476885903      0.98941701425140
  C   -0.24545457811811     -0.04374674816389     -0.10836007366259
  H   1.67306499207379      2.89598238864313     -1.90984243752310
  H   -3.23061323449620      1.85565529091094      1.78828880412931
  H   -4.29673063172890     -0.09954539974107      0.88970244461131
  H   -3.22872577340205     -1.71721535275360     -0.47242354265325
