23
Coordinates from ORCA-job ./opt_b97-3c_parallel
  N   1.51219709869653      2.88937148731818      1.06578765885100
  C   1.23971166154950      1.83692170444217      0.64884523242803
  C   1.02448916541753      0.52984604616115      0.17393016384882
  C   2.13530215560547     -0.31478133533676      0.09738260838795
  C   2.11049909816780     -1.62550162545671     -0.47399256672718
  C   1.01851731458390     -2.40193355752068     -0.69703518676589
  N   -0.25332855315779     -2.24345745847005     -0.27734960240944
  C   -0.84758905069882     -1.11820369214318      0.00104755334293
  C   -2.06822558840420     -1.15565938106856      0.75238276044238
  C   -3.12920740815183     -0.30333337027929      0.66858962002904
  C   -3.30160799729727      0.78350650448527     -0.21323800147197
  C   -2.31628988294730      1.33998157314296     -0.98330875937673
  N   -0.99215322324870      1.17574222408006     -0.85875041964932
  C   -0.30888792900609      0.22176318481073     -0.29904983907015
  H   -2.59419307373623      2.09474789211811     -1.71087789716104
  H   -4.29233842642526      1.21189941135729     -0.29123443724565
  H   -3.97692348996475     -0.54257198853720      1.29999567465424
  H   -2.14038551082395     -1.99798674687398      1.42945086361540
  H   1.18901766885162     -3.35032414580762     -1.19629857534189
  H   3.07093579749536     -2.04922203023894     -0.74154962768737
  N   3.34102113937460      0.13563097395538      0.50968750131627
  H   4.16262761822242     -0.42286801485339      0.38334888506607
  H   3.46510989689761      1.09281985591179      0.79130360142843
