30
Coordinates from ORCA-job ./opt_b97-3c_parallel
  N   5.21629454871879      0.15063014785286     -0.15679159237447
  C   4.05467361107551      0.04903902165556     -0.10964714642324
  C   2.66100883242996     -0.07486813864283     -0.05658179688138
  C   2.09219865501638     -1.21586047518629      0.58316368663581
  N   0.86600190491666     -1.67867657345138      0.46301825647700
  C   -0.25598997165543     -1.10554058553417      0.00549665096510
  C   -1.25068830349586     -1.96306703160895     -0.42743880084765
  C   -2.63214277322233     -1.75430402234460     -0.56508952209051
  C   -3.36922146859586     -0.66279021703599     -0.11519988860035
  C   -2.91806022128991      0.53166280644414      0.43886653803349
  N   -3.86642017169893      1.35684124965439      0.97280146135865
  H   -3.62768329090615      2.31869125449434      1.14765096040265
  H   -4.82673655627664      1.19013323097488      0.73469537041640
  C   -1.57586302510038      1.01193126160712      0.44436975688067
  C   -1.41610004036227      2.37736756889675      0.76930320070948
  N   -1.38750926959929      3.50091639865263      1.07228236103741
  C   -0.40188615176846      0.36137126362219     -0.00622474114643
  N   0.56777141461883      1.15600815807421     -0.41828347242231
  C   1.86137745464397      0.94191377517592     -0.62447194160114
  N   2.44622572292447      1.86493013810263     -1.42512924081994
  H   1.93310688161573      2.71528635005467     -1.57462125178705
  H   3.44759310655403      1.90463679542149     -1.49855383294887
  H   -4.44677724811415     -0.76779719181992     -0.17285386755126
  N   -3.33895018014805     -2.77987053547954     -1.14939341445818
  H   -4.32377156070911     -2.83736994524565     -0.95952364640478
  H   -2.88525707400730     -3.67322014341839     -1.21702234236608
  H   -0.90819620572790     -2.98096527163111     -0.57218313823520
  N   2.90484450297880     -1.96235216071276      1.37253248984474
  H   2.58189958562806     -2.88082775214702      1.61564812638710
  H   3.89446708776019     -1.79191140871787      1.38727671100600
