28
Coordinates from ORCA-job ./opt_b97-3c_parallel
  N   -2.72477063706923     -3.23348465416004      0.13337306957916
  C   -2.15699105229756     -2.21705939973004      0.10164654687469
  C   -1.54382274235102     -0.94888123436507      0.02123036921848
  C   -2.43217891944757      0.10769935054574     -0.39919051736556
  N   -2.30466737442562      1.40755836882222     -0.24620209370602
  C   -1.22633695239785      2.05257679677081      0.20175951886318
  N   -1.50269120209647      3.31324871914875      0.60239112196576
  H   -2.42086777547575      3.66458437301789      0.40218197148454
  H   -0.77113772167228      3.96684458514635      0.81828274188803
  C   0.12390056954019      1.62156005991092      0.22616052771392
  C   1.06381996582260      2.63986805691383      0.47203375898350
  N   1.79465413315414      3.52294562981318      0.68523871080260
  C   0.65098929893926      0.30398035797688      0.00744458807281
  C   1.98100619925098      0.23605236195241     -0.37816726961163
  C   2.92024663254876     -0.81770052596668     -0.40720396256234
  N   2.87575443865214     -2.01451184342849      0.17997208580520
  C   1.77525978330622     -2.47877773662995      0.75249873998186
  C   0.46202830889028     -2.05158304373479      0.75485854541722
  C   -0.15396837648038     -0.89119160710789      0.24060221425673
  H   -0.21617603926281     -2.76554760956463      1.20262907925392
  H   1.93559285112977     -3.42237347742418      1.26665663929636
  N   4.08177255024597     -0.58040904814761     -1.07025034946371
  H   4.82996830517590     -1.23186074736176     -0.91155344335671
  H   4.32593460666005      0.34711658376246     -1.36347753638506
  H   2.39212849740314      1.18335886071668     -0.70289374654897
  N   -3.59046450470564     -0.26512551892492     -0.98391110166666
  H   -4.28766240440344      0.44431539876774     -1.11798271810863
  H   -3.86518294433470     -1.22935077941892     -1.03921470998175
