25
Coordinates from ORCA-job ./opt_b97-3c_parallel
  N   -3.30128215117579     -1.70056209587240     -1.00366175678514
  C   -2.34908599664319     -0.86350268571693     -0.45859684674695
  C   -2.68135689288166      0.45651488549396     -0.23882398064498
  C   -1.89082581687116      1.37546577061439      0.49633162688027
  N   -0.58550583475715      1.40032559547494      0.63584536314508
  C   0.30677995414489      0.50468177230327      0.19836009772195
  N   1.42802956021692      0.98375329323593     -0.28010721699308
  C   2.61541449121352      0.38038738181662     -0.42409291602161
  N   3.17357657799036     -0.60618568889794      0.27144599611456
  C   2.42313782099313     -1.49512755136519      0.93692555210993
  C   1.07094752622417     -1.72520962514619      0.93077858137900
  C   0.04596708434767     -0.94159476438891      0.32498426845464
  C   -1.14800862176609     -1.50351151162523     -0.04760256494689
  H   -1.18766242998838     -2.58698941145982     -0.02565307365017
  H   0.74088597008238     -2.62218485380062      1.44123624248160
  H   3.01519312365638     -2.20090877082568      1.51339251086202
  N   3.41127412378294      0.94200613227696     -1.37802232547555
  H   3.18280630446021      1.87652744409434     -1.66516785488237
  H   4.38474038027819      0.69866001416687     -1.33216647366419
  N   -2.54866374663263      2.39588875157044      1.12766564941764
  H   -3.51471926294852      2.56143478652146      0.91683732269277
  H   -1.99544328452933      3.19899730129407      1.36835446942471
  H   -3.68561756985892      0.76975067191082     -0.50100568384763
  H   -2.95514599266806     -2.51867665885491     -1.47398709732784
  H   -4.06304018017107     -1.25945014791973     -1.48863146519759
