27
Coordinates from ORCA-job ./opt_b97-3c_parallel
  N   4.88998246550353      0.43579202846789      0.10877517398677
  C   3.73195287322969      0.29576322501449      0.07318231867584
  C   2.34025368055224      0.12491075951222      0.03086785874981
  C   1.84100509156541     -1.16910124316272      0.31815820045044
  N   2.75161188646483     -2.10415029539790      0.71452881071684
  H   3.73391990164158     -1.92411105347566      0.59972016801615
  H   2.48065988564011     -3.06948800352935      0.71659079783793
  C   0.51969761831321     -1.61354717363673      0.20551089290122
  C   -0.68484019951352     -0.97421157788015     -0.07180565319420
  C   -1.76153136508225     -1.79522998693068     -0.47002400404254
  C   -3.09683781332727     -1.50240691767858     -0.68552901638482
  N   -3.83944159182471     -0.44767328291891     -0.38897048450284
  C   -3.27944107339503      0.61297513754910      0.22784808108578
  N   -2.03531364174105      1.06431485820325      0.26371716219300
  C   -0.86649666009389      0.48057043634504     -0.02348626702948
  C   0.16901929337243      1.38335575179173     -0.26727858537322
  C   1.55760420480340      1.26321729263663     -0.30287559283640
  N   2.24281854871811      2.38650202709800     -0.65861334285196
  H   3.23177823325980      2.44578874323511     -0.48937808013416
  H   1.74953319441581      3.25852099781074     -0.69615338600679
  H   -0.19903919676197      2.39596270484183     -0.37896506099800
  N   -4.17864055743626      1.39228013061213      0.88134440931025
  H   -5.15131751198763      1.20711142223748      0.71947749367768
  H   -3.89691996271015      2.31535197008497      1.15414665729098
  H   -3.66651509379017     -2.30808738966204     -1.14328849778317
  H   -1.49039951567379     -2.81657846034781     -0.70819581722752
  H   0.42167513415735     -2.68897733532251      0.30635083387177
