30
Coordinates from ORCA-job ./opt_b97-3c_parallel
  N   -4.47686228051611     -1.09802828023686     -2.35898240839483
  C   -3.68845414336542     -0.63728269206285     -1.64027437739417
  C   -2.71770801463773     -0.10107387743382     -0.75794616559864
  C   -1.78320461324310     -1.02281572354509     -0.16995666544256
  C   -0.57007292736635     -0.68054154424331      0.31707057256914
  C   0.26996527207882     -1.67390609815178      1.02123631528613
  N   1.50729306755150     -1.94176821326115      0.74428724857560
  C   2.24824142316620     -1.30404041310324     -0.19569774830559
  N   3.15764238287225     -2.11641261469858     -0.79032253284377
  H   3.90930041810652     -1.72015705882815     -1.32747164204192
  H   3.32374200621816     -3.00151927270929     -0.34766690239940
  C   2.21072535089910      0.05823137422258     -0.51654953531691
  C   3.24691944994027      0.55038469557413     -1.32793467089647
  N   4.12398706323687      0.94483035630192     -1.98774972364785
  C   1.23281653067163      1.00786009784769     -0.03529263694586
  N   1.65092126230558      2.33693502658640      0.05234121263902
  H   2.52530818374867      2.52799411867509     -0.41153336400365
  H   0.95239729343465      3.01171401206994     -0.21750621484551
  C   -0.03467650965603      0.67006284289786      0.33588445464754
  C   -0.96578707950875      1.64613083085059      0.94989732356395
  N   -2.15150814982638      1.93310278050643      0.49920088976881
  C   -2.79966830777661      1.23953251670823     -0.45740718978776
  H   -3.57066128087538      1.80896926789997     -0.96350213438047
  N   -0.54964509747827      2.24565230281560      2.08921575847168
  H   -1.12285931355557      2.98888275229378      2.45297311642942
  H   0.44068751017384      2.30696587793643      2.25498785755184
  N   -0.31986455960390     -2.35675725679264      2.02231415369323
  H   0.23969421346954     -2.96412121670246      2.59640848382571
  H   -1.22662924227242     -2.08269407660862      2.34894324577868
  H   -2.07785931219092     -2.06492521390842     -0.14374213835654
