29
Coordinates from ORCA-job ./opt_b97-3c_parallel
  N   -4.84198675787591     -0.74655883616545     -0.46343852274681
  C   -3.76625702835861     -0.41690945112261     -0.16237625118372
  C   -2.43727433530628     -0.07701000645717      0.16037037388872
  C   -2.24449497489750      1.02453282325785      1.06282317497582
  N   -1.22621361279634      1.79181031786531      1.27008317683351
  C   -0.06379678338686      1.72829194955464      0.52999904126834
  N   0.53098824228626      2.99069138654378      0.39862080653338
  H   1.53588395066143      2.98133824565709      0.49673098929071
  H   0.11188356255837      3.63692641882760      1.04970808557912
  C   0.48865493491252      0.63034865403534     -0.04893559237177
  C   1.68682396387418      0.74062938112880     -0.90607586865686
  N   1.57100905530323      1.58021717493045     -1.97916697699793
  H   2.40729411745707      1.80976674472326     -2.49015435164166
  H   0.92481374554539      2.34550427903515     -1.87266717297753
  C   2.81350574240717      0.01900627178501     -0.66617611198229
  C   2.94554535331098     -0.97237666620598      0.37258610834808
  N   2.04161232354625     -1.80081834497209      0.83073771722424
  C   0.74248319667490     -1.78650124849016      0.45545536873696
  C   -0.03373301740888     -0.73051526756323      0.08175933029318
  C   -1.42786874715077     -0.93731336330490     -0.27746786363837
  N   -1.73314795836493     -2.03338576207521     -0.99074508349660
  H   -2.68238999767934     -2.23076901657356     -1.26271084442871
  H   -0.99839114307708     -2.58827680288417     -1.38677017682647
  H   0.25748608029490     -2.75282153528336      0.56358225595692
  N   4.19836407093507     -1.11404056402611      0.90413266651706
  H   4.37436723577716     -1.96936280530653      1.40257835748949
  H   4.98052618506133     -0.68856272107875      0.44278800179473
  H   3.68745929558644      0.19717907164991     -1.28622582439680
  H   -3.12781008368767      1.28284009332234      1.64333861711313
