23
Coordinates from ORCA-job ./opt_b97-3c_parallel
  N   4.82877682607961      0.62791563254284     -0.47625239564800
  C   3.67026987584157      0.52393134496516     -0.43344205765953
  C   2.27600996337682      0.35009590630503     -0.33007067041225
  C   1.44131637892394      1.26068653772182     -0.96876091489959
  N   0.14648348403004      1.46687278713802     -0.80636493839823
  C   -0.71194092039181      0.63289926015951     -0.24454964479143
  N   -1.79096816240491      1.09993896365358      0.35553932938519
  C   -2.98022807707838      0.51815353147287      0.40116338453945
  N   -3.85453042033240      1.05338935402840      1.28577291771663
  H   -4.81389709234095      0.76407628587205      1.29130999137857
  H   -3.62725434195253      1.94024910059652      1.69827170086941
  C   -3.42462891943871     -0.52992548212984     -0.44974806699882
  C   -2.58904732711096     -1.40930662855018     -1.08900986567104
  N   -1.28976721490596     -1.64023310472678     -0.87887677195561
  C   -0.45616787644627     -0.82888717838703     -0.27263613525069
  N   0.60725452905577     -1.31226248877238      0.36192359583177
  C   1.79236313813752     -0.75112344565344      0.46972965701339
  N   2.63914191195226     -1.31137393249928      1.35821421535367
  H   3.60661910141361     -1.04224213831676      1.37865606345504
  H   2.38901545756652     -2.20627506546138      1.73855541747132
  H   -3.04259423579666     -2.08867800257023     -1.80359342394347
  H   -4.49053837187919     -0.65054933275117     -0.59413981190975
  H   1.92535312239979      1.96234600336368     -1.63994187767499
