24
Coordinates from ORCA-job ./opt_b97-3c_parallel
  N   -1.81623334721395     -2.89003191396584     -1.20732960412609
  C   -1.47356685663198     -1.84976172222653     -0.80817061536413
  C   -1.13346131367475     -0.57355578440479     -0.32442468952797
  C   0.26743896754692     -0.33755219870382     -0.02182410497862
  C   0.86938345427311      0.95665705756101     -0.33923874874521
  N   2.03221374884778      0.94960449106333     -1.07266311095438
  C   3.13641740811403      0.35967939884506     -0.76737267841889
  C   3.38603426738894     -0.54699364508042      0.29710014950631
  C   2.40939011707877     -1.35276715352527      0.81035292710802
  C   1.02773861380900     -1.34404103541723      0.52574821480665
  H   0.48244617220462     -2.22337974411693      0.84430343824860
  H   2.73607952715057     -2.15503369514601      1.46220608173003
  H   4.41880706867713     -0.76090730030492      0.53883535996985
  H   3.95685118656720      0.53211515573546     -1.46238741309891
  C   0.31199254638195      2.16264873193685     -0.02368973602695
  C   -0.97345911972044      2.40381723361907      0.50030043176352
  C   -2.06831396524877      1.59678069105999      0.52917433186158
  C   -2.19569951620043      0.28147428121267     -0.01154072861846
  N   -3.47030957151905     -0.17181197031178     -0.14844801171088
  H   -4.22277544660300      0.49058279229385     -0.16220876097055
  H   -3.63932981754925     -1.04821902408358     -0.61218155607900
  H   -2.98154776502817      2.02238456277699      0.92654927019087
  H   -1.13328415984387      3.41067576938489      0.86932508057226
  H   0.93200728439021      3.02897742339453     -0.21885429513944
