27
Coordinates from ORCA-job ./opt_b97-3c_parallel
  N   3.80050471117745      0.24388887692289      1.03175837762046
  C   2.54599787199709      0.38079279690688      0.45884641689394
  N   2.26755330808199     -0.62797671792900     -0.42189063307011
  C   1.07624126234527     -1.04881422066677     -0.68560082190503
  N   0.89440793270737     -1.84725705165782     -1.77281873616884
  H   0.06518468564283     -2.40914138183842     -1.81860641539557
  H   1.71810033920876     -2.19454391825362     -2.23442491552757
  C   -0.16131769134464     -0.69559705514376      0.06160204661032
  C   -0.87307173503120     -1.65137815972070      0.69720225363575
  C   -2.16738709677549     -1.50337518019647      1.27970902595969
  C   -3.08992855974717     -0.57633825034321      0.90744681520095
  C   -2.97053073454464      0.46605612475228     -0.05126493633576
  C   -1.82583899818492      1.06495196135064     -0.50088050386686
  N   -1.88803694148466      2.12559919473994     -1.37990539595526
  H   -1.04188242677886      2.31586453078415     -1.88860466801130
  H   -2.72493219513005      2.21544491551726     -1.93191790273223
  C   -0.48711774821346      0.72711063601095     -0.00908338991770
  C   0.42892346717085      1.68488608074366      0.30656431066504
  C   1.77086273905023      1.48604935500406      0.71020312909144
  H   2.24594623818549      2.30884913234070      1.23214153211039
  H   0.08337936717528      2.71308833962530      0.30272352755528
  H   -3.90703066325964      0.87717334433429     -0.41544238790971
  H   -4.07901667401249     -0.68262327973766      1.34125120181095
  H   -2.48112679171968     -2.27211065769945      1.97494940898981
  H   -0.43684880260598     -2.64601047246716      0.74217153817689
  H   4.43811428444121     -0.29451174987631      0.46809850486101
  H   4.20882028834878      1.09039408349739      1.39135587721393
