31
Coordinates from ORCA-job ./opt_b97-3c_parallel
  N   -2.75241507908661     -3.53199906895073      1.08014055620707
  C   -2.17763442511125     -2.60628731793764      0.66814159593631
  C   -1.52917064623021     -1.45664408448184      0.17540693604254
  C   -0.29144744255041     -1.65327561665572     -0.52957513209282
  C   0.71865002802345     -0.77046800313175     -0.63178130255261
  C   1.88009939988255     -1.05930761039367     -1.48407774290687
  N   3.11324794660568     -0.97684114038357     -1.15479125447179
  C   3.53725349028167     -0.58158922505640      0.09410186139235
  N   4.72646022119712     -1.17537203365430      0.44465454029461
  H   4.97486660663446     -1.97922122240887     -0.10580144008687
  H   4.92764709244773     -1.25761895576223      1.42502867770378
  C   2.98768763475512      0.40660051047253      0.86637484666412
  C   1.76180197683609      1.09327649737875      0.63969836615400
  N   1.67303260157045      2.37431632148419      1.19934927634196
  H   2.41429913241426      2.58912002776434      1.84472458499390
  H   0.77392013634103      2.60068383417212      1.59574690140348
  C   0.70551715795219      0.58493795951831     -0.08086240606770
  C   -0.43918262666798      1.41273438848364     -0.45800974726230
  N   -0.16604449525811      2.60830506567578     -1.02367449299543
  H   -0.90374313112601      3.27252026733003     -1.19368849265476
  H   0.76421243676421      2.97467349608391     -0.92523457650271
  C   -1.75707356538681      1.00743679754260     -0.27892837115733
  C   -2.75656392110569      1.94129611731337     -0.61127552019240
  N   -3.55306861648118      2.75146985608093     -0.87183062002543
  C   -2.20299239590238     -0.24903769706115      0.30205774688993
  N   -3.39971303009739     -0.20400550613392      0.94959546330439
  H   -3.99053805605852      0.59888302707937      0.82455540190689
  H   -3.87669922193456     -1.07072714495187      1.13449751977485
  H   3.59067059798446      0.75914902618097      1.69668247800364
  H   1.69011403535024     -1.35959645946697     -2.51417600299288
  H   -0.16621164304534     -2.62384193893577     -0.99721729184347
