29
Coordinates from ORCA-job ./opt_b97-3c_parallel
  N   -2.62798357889582     -3.55520419806567     -1.70616640121361
  C   -2.13911558526651     -2.62867814571632     -1.20448776682130
  C   -1.51423582913045     -1.51899001746886     -0.57665732802063
  C   -0.21152107472031     -1.76249961950469     -0.01025751486278
  C   0.73801409020229     -0.83254190514903      0.22212358848121
  C   1.98859013026416     -1.20379735689571      0.90838843692508
  N   1.86434679722512     -1.98579997398774      2.00754165882304
  H   0.95567004971082     -2.11305478990106      2.41318717850649
  H   2.65340984009575     -2.13836029002327      2.61087754468502
  C   3.21275324391117     -0.86500085252877      0.39435634866609
  C   3.44252781615465     -0.08290262781813     -0.76048351683412
  N   2.72150710376626      0.82919602097178     -1.34813769759135
  C   1.52471360233370      1.27728226832780     -0.85511823246455
  N   1.29532799684218      2.61137869609948     -1.19292645227423
  H   0.34128426674339      2.83717461984187     -1.43084746354411
  H   1.93813957578150      2.90747202817189     -1.91086041774468
  C   0.61302652822799      0.58464009856865     -0.10318271462490
  C   -0.56537243261254      1.26300043629222      0.46458353590707
  N   -0.31632685456665      2.33052762995742      1.24921097831998
  H   -1.08146514089157      2.88473961229372      1.60059466824807
  H   0.56952487435707      2.79533967251883      1.14398397778262
  C   -1.86482766887770      0.83465711773360      0.21992754064470
  C   -2.90921029458745      1.67250800489991      0.67374955209098
  N   -3.71517529667177      2.41349240757556      1.06790753853327
  C   -2.23542852625187     -0.36445793825857     -0.46103065573353
  H   -3.24760634321725     -0.38391680307930     -0.84250994710599
  H   4.42155427092492     -0.22283618089414     -1.21548988199310
  H   4.09188755833288     -1.31261081346541      0.84433103744413
  H   0.01427717211654     -2.79597694689832      0.22171704956841
