31
Coordinates from ORCA-job ./opt_b97-3c_parallel
  N   4.85435450518522      0.38370100218622     -0.57324340399793
  C   3.77199666096676      0.11834856760284     -0.23312266200114
  C   2.43983737141742     -0.13986207948867      0.14409592394000
  C   1.45114973313861      0.72662537718498     -0.33596078430508
  N   1.76420428049513      1.70295482415103     -1.20694206891829
  H   1.10355214611398      2.45042657557788     -1.33679665007997
  H   2.72793311082649      1.88582457255777     -1.43654908169521
  C   0.07376837817032      0.60406250381319      0.11194188047275
  C   -0.70293633566917      1.68593374623518      0.45503034858770
  N   -0.12264430458916      2.96637669103337      0.54536491550709
  H   -0.75503918161265      3.65935215173369      0.91035268368356
  H   0.74926140417659      2.98603772379143      1.05350342349446
  C   -2.09556106799823      1.61221878761934      0.72093173141351
  C   -2.98971166587364      0.69183736311997      0.22661656888981
  N   -2.77356962034173     -0.25210582117373     -0.73573895769190
  C   -1.63955798987871     -0.86679676183319     -0.86696193483000
  N   -1.45048819487422     -1.64334011035489     -1.96055568529937
  H   -0.74665400652629     -2.35929763885673     -1.90733479526685
  H   -2.25205127254488     -1.83051576807945     -2.53971400376924
  C   -0.48569412562186     -0.74578175051623      0.05616653756905
  C   0.04318818487949     -1.83428744620122      0.66567057765379
  N   1.19302924612253     -1.86833848502536      1.43246754440735
  C   2.22826845503340     -1.14883961951419      1.14813574788817
  H   3.11024705688467     -1.37161907692802      1.74591204394678
  N   -0.52530378942275     -3.10674981452305      0.52937637793858
  H   -1.53352151131247     -3.11670588480640      0.56231022152543
  H   -0.13582855376295     -3.73674883787128      1.21367336593732
  N   -4.30233629558656      0.70607974796311      0.65121908604644
  H   -4.94531679308064      0.30204451502327     -0.00880407627710
  H   -4.63240814166665      1.55690432049895      1.07372392097332
  H   -2.50777935314587      2.39985210518099      1.34357854266008
