31
Coordinates from ORCA-job ./opt_b97-3c_parallel
  N   -5.27119810305873     -0.26609045360047     -0.21261712275051
  C   -4.11439134863908     -0.13872517129895     -0.13153909672609
  C   -2.72378520187426      0.02212688924397     -0.03214928205852
  C   -2.18342784173375      1.25777248651459     -0.46843390260559
  N   -3.05013604095160      2.14018644572975     -1.04368995247859
  H   -2.75297107614263      3.08969034961848     -1.16804062241724
  H   -4.04098857547671      1.99942933481848     -0.94909893290386
  C   -0.86739942343705      1.69680565637141     -0.32267910850021
  C   0.31428034120914      1.07720785180153      0.08291657994022
  N   1.27528306477710      1.93312773266980      0.44189331038509
  C   2.58968522913050      1.80202866544408      0.48142228958182
  N   3.21836309405536      2.82976436569076      1.13212234606055
  H   2.68219410848881      3.67138527819593      1.24683536714534
  H   4.21063676673938      2.93879805965707      1.03366650004036
  C   3.39543489926303      0.80355369658716     -0.07835164507732
  C   2.98524877821059     -0.47428853245753     -0.41430480023720
  N   3.91928657457348     -1.30030472816669     -0.97089014526199
  H   4.88483075480114     -1.03931004131445     -0.89463709566100
  H   3.74037846439456     -2.28908395548644     -1.00992248264333
  C   1.67862779414051     -1.02666741732617     -0.20767028442114
  C   1.60139272936369     -2.41875103896583     -0.40932724715778
  N   1.59555680058577     -3.57072061775935     -0.59088308205960
  C   0.45832270108874     -0.38143661761472      0.14136250969462
  C   -0.59572910257738     -1.20173557103511      0.54315979862111
  C   -1.98384309385521     -1.05135492719945      0.52406277111763
  N   -2.70062100149856     -2.08618692619428      1.05343447887378
  H   -2.23220390865685     -2.96319867157695      1.19028937640527
  H   -3.68430259712730     -2.15253075342101      0.85550083335515
  H   -0.28773010973720     -2.19347138630081      0.84884995852716
  H   4.45158579915353      1.02148074016910     -0.18210804849749
  H   -0.72221382840696      2.75597106829806     -0.49828174999446
