25
Coordinates from ORCA-job ./opt_b97-3c_parallel
  N   -5.04012464290803     -0.24715003544912     -0.75644298831743
  C   -3.90903920625064     -0.02720515344195     -0.59306785908356
  C   -2.54152226728739      0.19384428618064     -0.34036568027046
  C   -1.91124518186796      1.28914628754861     -0.93067152476459
  N   -0.75348991952431      1.83173273071025     -0.63634816183826
  C   0.24273514298398      1.33940364340467      0.08859658671367
  N   1.02887882939505      2.17950954793290      0.72949200300430
  C   2.32644780024083      2.04222635074767      0.94818968328436
  C   3.22515355499373      1.15995667685990      0.38729487506009
  C   2.93616803629045     -0.05762710303480     -0.25518270897608
  N   3.97033495133614     -0.73609491986926     -0.79996208901936
  H   4.90858604356013     -0.41213813649907     -0.65818721197939
  H   3.85791325660877     -1.69231475197373     -1.09091803075193
  C   1.65724864916448     -0.69011451579573     -0.26558797375784
  C   1.62763048249954     -2.05244252230218     -0.63203654512681
  N   1.69100589898703     -3.16686989845766     -0.95930821234742
  C   0.43313566828144     -0.12171166448501      0.14082502103473
  N   -0.54216866470115     -0.91591516347508      0.54650743828729
  C   -1.85242863545285     -0.73237362619876      0.51018913881736
  N   -2.57468194805424     -1.56586325985236      1.28155638215363
  H   -3.57660269068028     -1.58945418838471      1.21088429787987
  H   -2.10558649532502     -2.35702760053313      1.68486332401998
  H   4.27348096348618      1.39575540005798      0.52146253655960
  H   2.74370156700702      2.80056319667001      1.60360640891363
  H   -2.47338705192110      1.81235339653967     -1.69746543856728
