25
Coordinates from ORCA-job ./opt_b97-3c_parallel
  N   -1.83139331371602     -3.55490456413557     -0.60924234436469
  C   -1.62891593035262     -2.41929820919658     -0.45576388535467
  C   -1.39839275863674     -1.03538325686206     -0.27126935056300
  C   -0.06981257929095     -0.64460916301772      0.11894193337294
  C   0.79876966203310     -1.63772469015602      0.56041847145787
  C   2.18850816981763     -1.66476704999469      0.66628289160931
  C   3.12895698858779     -0.75057878220722      0.27606957783314
  C   2.87111630857875      0.52946464021925     -0.25547432091486
  N   3.95442959300123      1.23173016231185     -0.71146096252527
  H   3.85833961788564      2.21841638786345     -0.86891730865432
  H   4.87082627270485      0.93576186109127     -0.42858586096498
  C   1.63155415397430      1.16045243661024     -0.32279050418098
  C   0.32794338894562      0.75387861132625      0.00062296363247
  N   -0.50952244927894      1.78000716241670      0.20291456101331
  C   -1.82636516723298      1.84926682291027      0.15652177936145
  N   -2.75634833840278      1.04414738676242     -0.41331265826691
  C   -2.50707133965630     -0.23436947290177     -0.58393097684531
  H   -3.34436897099277     -0.78374794808578     -1.00518122316083
  N   -2.36021468030769      2.95639114797774      0.71447868089404
  H   -1.75564797314724      3.69038438335717      1.03162145078714
  H   -3.34285091095478      3.12196365493856      0.60330468777137
  H   1.66123989567112      2.20910661129369     -0.59560219922075
  H   4.16844334454879     -1.04364207338165      0.35973423373607
  H   2.58517558846694     -2.59279815806465      1.06124025892787
  H   0.32278768445298     -2.57789849147566      0.80490553922174
