18
Coordinates from ORCA-job ./opt_b97-3c_parallel
  N   -1.78331371530610     -3.14315514999245     -0.50971818117295
  C   -1.51976436720732     -2.02473108546724     -0.34588064029414
  C   -1.22044600881781     -0.65317133982594     -0.16399970389740
  C   -2.20558983098786      0.30037711111900     -0.55982312281429
  N   -2.34854770182441      1.55178413548327     -0.21053481653996
  C   -1.48381097912437      2.20305059201300      0.60036561292597
  N   -0.19661565647682      2.08765013154279      0.70798327967259
  C   0.49758248149969      1.08648247103483      0.14210714765107
  N   1.58892418276473      1.30500869361058     -0.53432479482071
  C   2.53275409131558      0.41041608069349     -0.84442915258257
  N   2.93888816686781     -0.64252927753584     -0.17196841152559
  C   2.17568751789824     -1.16251140174450      0.80785380053110
  N   0.87783803219097     -1.13231555095268      0.94134935348430
  C   0.03636373515308     -0.29895033841824      0.32399056253380
  H   2.70365800865824     -1.77397308799793      1.53127295472451
  H   3.11226810486965      0.66286270634433     -1.72608297802865
  H   -1.94068090037735      2.98938460595624      1.19222892719988
  H   -3.00208150129634     -0.09110952416185     -1.18534998714639
