24
Coordinates from ORCA-job ./opt_b97-3c_parallel
  N   3.71623717474914      0.79498685738472      1.03135964353741
  C   2.61254160426588      0.34166543909534      0.36215824926306
  N   1.49560144375661      0.96227518045368      0.61582042157920
  C   0.26288484506069      0.68733706568345      0.11686047415330
  C   -0.49875430975051      1.73109128724080     -0.35909222093085
  C   -1.84363779838464      1.70251489592152     -0.77393725652900
  C   -2.80862429872389      0.77751848280614     -0.51317438623198
  C   -2.61233231835083     -0.34149874343511      0.36415703559301
  N   -1.49522065156251     -0.96193583154910      0.61748378599446
  C   -0.26284290398779     -0.68733646433524      0.11750112750413
  C   0.49847253930253     -1.73141139756090     -0.35826415071664
  C   1.84307574970643     -1.70311678150107     -0.77403595134164
  C   2.80823892955187     -0.77794607111783     -0.51454947699274
  H   3.81795919884299     -0.98071200374490     -0.84945907203019
  H   2.16707008148649     -2.57707219987672     -1.32910449442788
  H   -0.02506247497527     -2.67392229089291     -0.45668741858147
  N   -3.71557513958697     -0.79436929659853      1.03441012129089
  H   -3.64989408191474     -1.70856841278956      1.44501775250459
  H   -4.62513676917872     -0.49719930181196      0.73587834557725
  H   -3.81857065329669      0.98005698297188     -0.84753830148878
  H   -2.16800764750989      2.57609533308382     -1.32937658527897
  H   0.02471299374327      2.67353580308323     -0.45850444666842
  H   3.65083279495536      1.70946198781565      1.44139721172403
  H   4.62559747480122      0.49761788817352      0.73241200229754
