27
Coordinates from ORCA-job ./opt_b97-3c_parallel
  N   -3.76482582552511     -1.94053088835103      1.64868142286353
  C   -2.98766522643967     -1.26961909735079      1.09621616872306
  C   -2.09842320196786     -0.41520166335045      0.41894725796339
  C   -2.60159368110721      0.80552375695492     -0.00972402266932
  C   -1.85258735439621      1.82529016842919     -0.70441562388303
  C   -0.51264509985370      1.99073900545508     -0.76935521552115
  C   0.54704360276356      1.14223448523396     -0.31244927240544
  C   1.74800904813419      1.73390425886705     -0.01392573769556
  N   2.84893894797680      1.21395495719080      0.56572504594559
  C   3.15845780980393     -0.05592947719347      0.50394288586390
  N   2.72247912891282     -1.01020839133153     -0.37672352500818
  C   1.48408933847811     -1.11421809949447     -0.74072064512533
  N   1.17968553732957     -2.07326064901941     -1.64633855027827
  H   1.94123497313368     -2.55414859273283     -2.09416151905620
  H   0.29577261330093     -2.04056005705315     -2.11845999785643
  C   0.33924628433878     -0.31102508471782     -0.24200817889176
  C   -0.80162373800846     -0.95328973457236      0.07715617824340
  H   -0.76054780032394     -2.03620469082472      0.09368153711007
  N   4.13935155809422     -0.49983593439324      1.33506404741150
  H   4.68327051229361      0.20499147416471      1.80043444922077
  H   4.60586514162244     -1.35079882470085      1.07894573566644
  H   1.80658199606503      2.80880594098857     -0.16339309874114
  H   -0.18762783475495      2.93189239745690     -1.20332111524367
  H   -2.45738550452859      2.62050640836326     -1.12385526427163
  N   -3.91440295626206      1.09995294843311      0.17687680878320
  H   -4.21402156790100      2.05434559542466      0.10179265884545
  H   -4.47376368487402      0.50396046952775      0.76406205861055
