26
Coordinates from ORCA-job ./opt_b97-3c_parallel
  N   -1.75613364813365     -3.60436841062404     -1.50897146661015
  C   -0.98252642048737     -2.82306724628922     -1.13447146465005
  C   -0.01328080394117     -1.88457190205001     -0.70385272098641
  C   1.32560120966971     -2.27346886952580     -0.81064680614195
  N   2.42673442292035     -1.77682684226134     -0.29455917961467
  C   2.56105188086073     -0.60070814169465      0.32885044781528
  N   3.72657207688585     -0.47388722528979      0.99234405648367
  H   4.01177563680547      0.40530645473599      1.38626071607064
  H   4.41897951218708     -1.18555744863417      0.84190776352447
  C   1.68922679826492      0.52624681226357      0.27804410803354
  C   2.25135423774783      1.77487702586476      0.62215217893838
  N   2.78995501610959      2.75240948482256      0.94998879757329
  C   0.33949221099535      0.53968576747803     -0.13221282927298
  N   -0.17455583509580      1.69648444614833     -0.50174709069434
  C   -1.45923605259862      2.05199510877246     -0.58458233399665
  N   -2.51347122901773      1.61649976847409      0.11538579541564
  C   -2.47287083563944      0.40905864061479      0.66821531845910
  N   -1.72226271279741     -0.65647057271416      0.33447386241243
  C   -0.49939585723114     -0.67651316319599     -0.12915889247570
  N   -3.38754619122109      0.15875231484104      1.62456699199675
  H   -3.57373810474860     -0.79686060238936      1.86823114314525
  H   -4.09279677571905      0.85145203534150      1.79850295663391
  N   -1.70355489816500      3.08023164097313     -1.41940498372796
  H   -2.61222989044974      3.50518135243865     -1.39866998259377
  H   -0.92535092723814      3.60497440956721     -1.77426287472176
  H   1.48433165213496     -3.20442463176650     -1.34602758391601
