25
Coordinates from ORCA-job ./opt_b97-3c_parallel
  N   -5.03906695808559     -0.93960015325144      0.32152577719204
  C   -3.90175270714266     -0.72890733304103      0.22436605979099
  C   -2.51123549202760     -0.45966794920303      0.10486658180866
  C   -1.64543390520319     -1.48065590630158      0.46428725459226
  C   -0.25267724456202     -1.54794314293224      0.34364338982927
  C   0.34294073976984     -2.82294134859338      0.53816515670183
  N   0.82032000425637     -3.86689555725810      0.70921581500397
  C   0.63538228891643     -0.50594013769153      0.00307180837218
  N   1.83400697225371     -0.81859821627567     -0.47253347457589
  C   2.99263982418272     -0.21398188682475     -0.33271666953415
  C   3.28494386127099      0.79730951091357      0.63978564351102
  C   2.32440050510048      1.60439884612410      1.15676390566294
  N   1.05932159299542      1.76111837995242      0.71785011559605
  C   0.27633253108762      0.91364049003507      0.13499416340887
  C   -0.94288152950066      1.41290696393771     -0.47874673552361
  C   -0.85584253717605      2.70786476418632     -1.04800873796599
  N   -0.77849552898447      3.75611389255588     -1.54091437186020
  C   -2.16850005837708      0.80044346521041     -0.43721430346398
  H   -2.99443798792093      1.37797283049545     -0.82945974458045
  H   2.59674819641074      2.29468049586047      1.94677296400075
  H   4.31168478041535      0.93758288144508      0.94957851116628
  N   3.99527872880156     -0.66641863222622     -1.10710122351842
  H   4.88074180321360     -0.19925169002698     -1.14533191818338
  H   3.81930270717544     -1.42616228131686     -1.74064475925950
  H   -2.11628596386476     -2.39210896497931      0.80569102752903
