30
Coordinates from ORCA-job ./opt_b97-3c_parallel
  N   4.78699448738764      0.33419647905653      2.05711752887291
  C   3.80943717477504      0.16027116594672      1.44696318176976
  C   2.66911347843418     -0.08153380680428      0.65791350251487
  C   2.81882951882524     -1.02006951257023     -0.47672010252006
  N   1.88649020196476     -1.69866040708686     -1.07560929123594
  C   0.59623845036865     -1.72482612107585     -0.64669620733619
  C   -0.17353023800912     -0.73263158795599     -0.12594555433192
  C   -1.49236337388417     -1.07730689279132      0.37354391998435
  N   -1.65460187701773     -2.32094091734097      0.86963644059812
  H   -2.54858190848022     -2.61317477204679      1.22846206826083
  H   -0.84876118348853     -2.83585896836001      1.17057187004535
  C   -2.59115717062641     -0.21992640495691      0.33325053532154
  C   -3.80212268621216     -0.67581106019052      0.87977113867081
  N   -4.80314014723475     -1.07635728853637      1.32406659441011
  C   -2.62482802063659      1.02300284516257     -0.42085490779124
  N   -1.65701818261475      1.87416524967767     -0.64668997412965
  C   -0.40119380646039      1.77944557431432     -0.15036689291897
  N   0.18388678797356      3.01216595453361      0.02192687141960
  H   1.16022776451262      3.10578916229456     -0.19258538276861
  H   -0.38330447872357      3.77259953880037     -0.31100102157289
  C   0.33380093379546      0.63116034119135      0.13421310376901
  C   1.58540626363356      0.75967415001871      0.76701743479076
  H   1.72265047317752      1.62622483302467      1.40944278170549
  N   -3.82619800487904      1.36742091295535     -0.93215576976701
  H   -4.64934117003494      0.81961624421701     -0.76264333231693
  H   -3.92598091683132      2.28969586747922     -1.31565013879325
  H   0.11818706678303     -2.68262350206333     -0.82950677538223
  N   4.07397734104610     -1.14272187144581     -0.95820786492128
  H   4.86063923199628     -0.75641456395108     -0.46884612268175
  H   4.23660155516279     -1.83694196141313     -1.66534047657208
