25
Coordinates from ORCA-job ./opt_b97-3c_parallel
  N   -5.09076292868347     -0.13285844750192      0.21997529467855
  C   -3.92906048432297     -0.21627472716614      0.19626599985618
  C   -2.52127498212903     -0.24357925123247      0.14879155716592
  C   -1.88258105338342     -1.44331702821082      0.47153223645524
  C   -0.56023572493493     -1.80572254814940      0.42086857895687
  C   0.59904369334888     -1.08258540838545      0.06391260774953
  C   0.63233803468482      0.37818481158071      0.02737199856783
  N   1.75801142586948      1.07852821609031      0.25659747740811
  C   3.02590643494053      0.75323521764133      0.12392375750068
  N   3.64326833115115     -0.27506336321114     -0.52381790985327
  C   3.00758158531555     -1.41752730084513     -0.66223989709000
  C   1.72610737277653     -1.82826148343776     -0.29428714696175
  H   1.55823327639812     -2.89326575058517     -0.39634372941992
  H   3.61850461826950     -2.19703524450675     -1.11279808028091
  N   3.90440380788108      1.61846983740618      0.67647167723908
  H   4.88115692281523      1.49031886822054      0.49027245876323
  H   3.57121171028962      2.49097231566182      1.04089543343681
  C   -0.48153992492385      1.18316070771757     -0.21640808086454
  C   -1.86157436744439      0.95980319594890     -0.22830751659644
  N   -2.64272605996327      2.00773856370781     -0.59066611680722
  H   -2.23548165649903      2.91451003605448     -0.71839390664189
  H   -3.63932665634021      1.96639496460825     -0.46766689978490
  H   -0.19510251121866      2.21721757651918     -0.36754969920334
  H   -0.37783226374842     -2.85224935354824      0.63190518733779
  H   -2.55786965535002     -2.23795771507636      0.76349584618528
