25
Coordinates from ORCA-job ./opt_b97-3c_parallel
  N   0.85315738272637      3.46491555864164     -0.94160609607970
  C   0.26167237999899      2.49974665049237     -0.67732088219276
  C   -0.50637238399429      1.34456123510723     -0.38273946025735
  C   -1.89218361499348      1.53838305289421     -0.38353229385232
  N   -2.91103786240212      0.78153681484932     -0.04485149339243
  C   -2.79744240612177     -0.52208080682168      0.27754841767405
  C   -1.70567562965752     -1.39003804944139      0.16612277781488
  C   -0.35413338569586     -1.15266296212870     -0.09768601113020
  C   0.43481772418064     -2.26104765467729     -0.47593321256110
  C   1.80513381737983     -2.40397774528140     -0.59807262133160
  C   2.82973680847584     -1.54912319900595     -0.24211556635781
  C   2.61090589792415     -0.30033824215813      0.35388455868538
  N   1.49478934771944      0.42123674554880      0.31102993265319
  C   0.25308992914978      0.17597356821474     -0.03450636360880
  N   3.61988069852583      0.30572390247468      1.03364098295296
  H   4.54579046681081     -0.07806053986487      0.99993553507766
  H   3.53261189864446      1.29418306341009      1.19230571070381
  H   3.84924413036667     -1.89863542814800     -0.34071992473859
  H   2.12213673025557     -3.36299422488413     -0.99250769089931
  H   -0.13904636359336     -3.14010780299068     -0.74172711313574
  H   -1.95402872191516     -2.43937879254929      0.28144264489734
  N   -3.97098645224333     -1.04091241467390      0.72470795265858
  H   -4.09036187952350     -2.02909341003336      0.84346245013316
  H   -4.79113572370963     -0.47458201140615      0.60076820192324
  H   -2.18944976480905      2.54172783103186     -0.67545425663671
