21
Coordinates from ORCA-job ./opt_b97-3c_parallel
  N   3.36711063295071      1.37492466707629      0.92170272491007
  C   2.42190363912323      0.69456817716587      0.22977194211608
  N   2.88975292629208     -0.37763713532058     -0.41788436785618
  C   2.10878739943399     -1.23187749199803     -1.06883476118488
  N   0.85077961290249     -1.56008013873397     -0.90165315073344
  C   -0.03132453293242     -0.90207087604145     -0.14927858597574
  N   -0.90099037947842     -1.57426107608742      0.56768896396922
  C   -2.02720244311047     -1.09150015877181      1.09752466943045
  N   -2.81464676671917     -0.12234429993606      0.70976944674770
  C   -2.38705167751561      0.77884817800130     -0.22518882898633
  N   -1.16906049225155      1.22921116184877     -0.45349457520542
  C   -0.03745324965940      0.57729775622343     -0.14168075361678
  C   1.11921905379191      1.25149994536896      0.17803944242142
  H   1.01255113816905      2.30681040352550      0.39918947191518
  N   -3.39038635445100      1.36253271592313     -0.91503782240217
  H   -4.32880065391569      1.20969856052234     -0.59483507966184
  H   -3.18711559478787      2.18619048228816     -1.45079630530919
  H   -2.39754204520092     -1.67016632902328      1.93922873110342
  H   2.63170503288957     -1.82581183142156     -1.81304593805294
  H   4.32650504454868      1.11996330500459      0.76913984197553
  H   3.16979309342036      2.27443049168570      1.31738946669598
