28
Coordinates from ORCA-job ./opt_b97-3c_parallel
  N   -5.40529869361737     -1.29665214237217      0.19616272616868
  C   -4.28346079866889     -1.00840507203491      0.10904633950077
  C   -2.91116249486526     -0.66921440445764     -0.00366784436085
  C   -2.06503192787778     -1.60489804297857     -0.63248967642981
  C   -0.70411580431869     -1.61406943003571     -0.72458114399595
  C   0.28321870331014     -0.70251542348133     -0.24570177865027
  C   -0.01776082151096      0.71428177329329     -0.11080437245027
  N   0.82372639216707      1.67056259247178     -0.44582355536013
  C   2.14619728047977      1.72211730000526     -0.46470149629124
  C   3.04437610208915      0.82170460863103      0.13077477239169
  C   2.78385846194922     -0.51304248935211      0.36895827981996
  C   1.56209643074771     -1.21586620850148      0.02276115883280
  C   1.68802678878316     -2.62160653258621      0.02932429429848
  N   1.86005611150767     -3.77272839332791      0.06655970915816
  N   3.76468321311098     -1.26278874442794      0.92250800600260
  H   4.68316235322237     -0.87678511251571      1.03556914038146
  H   3.68354995896916     -2.26335871951922      0.97141065837994
  H   4.04807672512144      1.17617900728757      0.32845189212239
  N   2.64041735688915      2.82250526967049     -1.07608047480381
  H   3.62472406034832      3.00899296738233     -1.09468028559309
  H   2.00660050886310      3.57616778117254     -1.27403052062041
  C   -1.27110497886839      1.18582795174127      0.40324226447587
  C   -1.23437737783234      2.53322158001567      0.85743140375596
  N   -1.24359551249917      3.62499262517631      1.25312217451023
  C   -2.51407235074462      0.56555040168061      0.48635604368317
  H   -3.29084989884786      1.16579795209169      0.93984239320478
  H   -0.29659387047638     -2.50048236280267     -1.19265409497699
  H   -2.56233287203110     -2.46839397562825     -1.05464939345558
