26
Coordinates from ORCA-job ./opt_b97-3c_parallel
  N   -1.29012173686124     -3.53222873698590      1.54686661117230
  C   -1.43646065842711     -2.44884358838268      1.15376701774982
  C   -1.64123945143509     -1.12771345497326      0.69150253841047
  C   -2.91014792674544     -0.55793971109706      0.93175152405098
  N   -3.49510722509456      0.48592465351394      0.40219757580391
  C   -2.85965171046895      1.29175817760451     -0.48875668729936
  N   -1.59038180536296      1.65207486254144     -0.52666550852802
  C   -0.56395883455075      0.98938492701706     -0.01793083751489
  N   0.46395416034913      1.67732101195303      0.42836195554693
  C   1.72490760201637      1.29554345016494      0.59083787777383
  N   2.44437245633789      2.06655969450487      1.42998472817407
  H   2.03955863772485      2.93449559016402      1.73023472396308
  H   3.43604106816482      1.94148674915384      1.52667945024844
  C   2.38516925429140      0.23818316659163     -0.09558812245872
  C   3.78636431262725      0.24051149214274     -0.14617632956932
  N   4.95133151284377      0.24443071371711     -0.19064117510711
  C   1.68348710730842     -0.83231752151621     -0.70533310679832
  N   0.43264390106503     -1.20402122673655     -0.43919894559808
  C   -0.55810331514243     -0.49124319776493      0.03889804296310
  N   2.33342805904354     -1.63780928783075     -1.57027326910570
  H   3.32399740583010     -1.54269908227794     -1.70901672056262
  H   1.91429663484176     -2.52867056446062     -1.76925827957135
  N   -3.68201974510221      1.87898668886825     -1.38019028041641
  H   -3.33325886496022      2.64282399489835     -1.92954128847201
  H   -4.67125645498061      1.79319135485748     -1.23613892216601
  H   -3.54127449851700     -1.12017843836574      1.61325352370991
