28
Coordinates from ORCA-job ./opt_b97-3c_parallel
  N   -1.42780857405656     -3.35015015701731      0.95997555178735
  C   -1.23636072085723     -2.24726232093945      0.63657682829292
  C   -1.12947697436695     -0.88380152432032      0.29802930556432
  C   -2.32720906717994     -0.14006094627101      0.32271995629976
  C   -2.50374971007097      1.18766164989713     -0.11010960359384
  C   -1.54242008469737      2.15171868171076     -0.32815609675220
  C   -0.14164176656715      2.01857704639871     -0.16263934468195
  C   0.63511562060879      0.89309511359853     -0.03115119562952
  C   0.14020812221563     -0.47830582639927     -0.24135648276169
  N   0.83221511536194     -1.41521618367097     -0.83287537010910
  C   2.13354510444214     -1.49351881669882     -1.13584339195997
  C   3.19102743553080     -0.83981191311762     -0.58352550893905
  C   3.09535995912055      0.29127973974925      0.27442115510347
  C   1.96436519850065      1.05174141518518      0.46664544227155
  H   2.09737182973375      1.94020946962431      1.07580823835633
  N   4.28713848453611      0.72394339004162      0.82782374215346
  H   4.21203178385284      1.39500055808628      1.57324201962375
  H   4.96653342190687      0.00797245633070      1.01891227377481
  H   4.18460899903772     -1.17799223385760     -0.85087112899976
  H   2.35474407324146     -2.26321988151612     -1.86922291735884
  H   0.39114146756686      2.96052529079385     -0.09262176659354
  N   -1.97210892849062      3.43337958774771     -0.61543267657261
  H   -2.91676996947090      3.52723338732806     -0.94556814303499
  H   -1.32257633856256      4.01537448818146     -1.11518373079365
  H   -3.53440828849085      1.51435390415429     -0.19378544151506
  N   -3.45130237585216     -0.77423597647294      0.76318375792918
  H   -4.34359747425172     -0.35513083840837      0.58103680841564
  H   -3.44355826334228     -1.77603348413709      0.85743940662329
