24
Coordinates from ORCA-job ./opt_b97-3c_parallel
  N   -5.59746538625781     -0.88318248912875      0.21445754503750
  C   -4.45640578379229     -0.70215701574006      0.10000706460297
  C   -3.06024071944600     -0.51032140187097     -0.04897731764418
  C   -2.48390175137188      0.62112063785238      0.51245091210892
  C   -1.17466889554125      1.10512043983326      0.38816764874470
  C   -0.92780895058278      2.42877123941264      0.83609721495400
  N   -0.73147001247187      3.51163408366871      1.20417622990023
  C   -0.06169887551731      0.40239824820976     -0.12720653840677
  N   1.03114748541710      1.04343264237514     -0.49880902062583
  C   2.28338181853366      0.62520680333112     -0.48042755302548
  N   3.16191136667596      1.35423165065317     -1.18056716499376
  H   4.14796828511009      1.16597569800734     -1.13675536492750
  H   2.85405856257451      2.22394294594085     -1.57883586518497
  C   2.77801104356269     -0.47606129270017      0.31670198480938
  C   4.15255950955391     -0.49702007711123      0.63008984464600
  N   5.29546736903068     -0.47272937816110      0.84260563402739
  C   1.96784787522657     -1.50572611852003      0.76275889858234
  N   0.74523139806179     -1.82272944140507      0.35948722456110
  C   -0.14045032335580     -1.05932721521922     -0.22219776104567
  N   -1.10169034962963     -1.63200563695560     -0.95828212771189
  C   -2.37527664290602     -1.40895651059565     -0.91431153894915
  H   -2.98019514484570     -1.97848144614237     -1.61231881277785
  H   2.40459212228460     -2.20457701608617      1.46681458857657
  H   -3.16343101133889      1.27702912719089      1.03928754458002
