25
Coordinates from ORCA-job ./opt_b97-3c_parallel
  N   4.88502181269115      1.81520496704061      0.81817433309903
  C   3.94832977690006      1.19354965434855      0.52947031362706
  C   2.81967347898826      0.41427278336441      0.14816788796803
  C   3.10536200604425     -0.70191287322663     -0.73847820410768
  C   2.34545646596699     -1.79697145965995     -0.91877651816530
  C   1.11246605271785     -2.10533072778025     -0.24890418591272
  C   0.22457203374808     -1.23843626928495      0.27504497220326
  C   -0.90497133024146     -1.76249170291593      1.07082470418062
  N   -2.14618202828559     -1.50675373784127      0.93234452279894
  C   -2.68059664605247     -0.58657671855966      0.06922390640928
  C   -2.11278757195829      0.66145384733853     -0.17332394747137
  C   -2.96295411608935      1.65104080591011     -0.71342167531813
  N   -3.70144942461687      2.42849144279012     -1.16495690374926
  C   -0.76520436415996      1.03195350123738      0.11929894242369
  C   0.31753955972764      0.22176235309155      0.28191163752501
  C   1.60346449746957      0.81685627033553      0.59766363501135
  H   1.58314980434244      1.70487002745717      1.21860366258892
  H   -0.58069445663936      2.09874045188134      0.14135568763387
  N   -3.89536960532740     -0.94219660017239     -0.41761714149346
  H   -4.46004634571080     -0.24299651253747     -0.87002554890925
  H   -4.38767153867811     -1.65849578149139      0.08658618666344
  H   -0.65077342456820     -2.44134024412538      1.88341868467723
  H   0.88119131275559     -3.16175629897339     -0.15481067769189
  H   2.74332954866591     -2.57166998213780     -1.56285171395721
  H   4.06146080424035     -0.65783748071243     -1.24292195310954
