26
Coordinates from ORCA-job ./opt_b97-3c_parallel
  N   -5.12233110650757     -0.70087044169794      0.73152256393910
  C   -3.97545157953792     -0.56066601636443      0.59023330793302
  C   -2.60171691685992     -0.33179734415275      0.37409965501614
  C   -1.68409600038597     -1.27730873042319      0.79654563637316
  C   -0.30726570606228     -1.33308800167087      0.59841850482140
  C   0.54809918646659     -0.32163587607887      0.18231829249908
  C   0.06132996463525      1.06450593420248      0.15388087046400
  N   0.70499033599414      2.06307975940630      0.70635491498241
  C   2.00296584063079      2.17939028696825      0.96218639986001
  C   3.06316684683522      1.47870994976495      0.44903259125180
  C   3.01068057847414      0.23217810618312     -0.21328732811235
  C   1.87305434269410     -0.61429961350917     -0.25624786942573
  C   2.10210300144352     -1.92033442259081     -0.73372496195084
  N   2.35590450727762     -2.98358738369674     -1.13542530498182
  N   4.16481190172574     -0.22144367834988     -0.75452522971854
  H   4.24807789441968     -1.17374665596901     -1.06659941550973
  H   5.01641232926212      0.28675314320086     -0.60913957601504
  H   4.04839281092604      1.89203375065870      0.62545455191025
  H   2.24484341343898      3.01460628828051      1.61255286414782
  N   -1.06646473756551      1.36129781297034     -0.49416768346845
  C   -2.23603004387885      0.78771248263604     -0.47055855187398
  N   -3.17660553395576      1.27970510965855     -1.30611371342899
  H   -4.12600911037890      0.95792625156868     -1.25403135799504
  H   -2.99753972416539      2.16211610236349     -1.74893056765038
  H   0.15286440365096     -2.28591354024667      0.82464307629254
  H   -2.11225840737622     -2.13867691121655      1.29321982694541
