29
Coordinates from ORCA-job ./opt_b97-3c_parallel
  N   -1.46814892430819     -3.93193373949777     -0.88759659610593
  C   -0.73962970149915     -3.05513253082970     -0.65277724783725
  C   0.14828470776370     -1.99089926615561     -0.36228105938185
  C   -0.45800044607109     -0.71825834023056     -0.02969662840484
  C   -1.79177202551345     -0.76563841635343      0.32264882448351
  C   -2.80555339568450      0.20934735365479      0.45034571280187
  N   -3.98790764820359     -0.24698565913953      0.97007975844714
  H   -4.14997812666243     -1.23811745783206      0.97942370410888
  H   -4.81375832316442      0.30836635630979      0.83665315275397
  C   -2.73938233229182      1.54120067177014      0.07793116641117
  C   -1.61218289012299      2.20604347690126     -0.39920800668488
  N   -1.79517852276353      3.48908067156358     -0.84679201762307
  H   -0.98953604060374      4.08532673552106     -0.91204321449350
  H   -2.64201556231205      3.96431047714292     -0.59186276009186
  C   -0.29212526996002      1.73242960217925     -0.45254561272257
  C   0.30678069927666      0.51875770592057     -0.12799053344933
  C   1.72078287922681      0.58429253611504      0.12504036294723
  C   2.23250213209455      1.87001247753419      0.39167392095773
  N   2.71476003142030      2.90435514983139      0.63188763168629
  C   2.70147569167800     -0.44768013437204      0.18614989480543
  N   2.61506298459647     -1.72886582495134     -0.18882010998722
  C   1.49033110313924     -2.34803531903918     -0.47141145778799
  H   1.64638368355591     -3.36559120406602     -0.81815812214729
  N   3.93473152882083     -0.12772219525375      0.63290798809053
  H   4.19968332997059      0.81510878924317      0.85394973084849
  H   4.64433329662604     -0.83104539279619      0.53766154521670
  H   0.41239833844244      2.50026361272544     -0.74324915018574
  H   -3.65433735493362      2.11796186640123      0.14930519980679
  H   -2.15473594519152     -1.76777785577803      0.50815359123422
