29
Coordinates from ORCA-job ./opt_b97-3c_parallel
  N   -5.05091436550502     -0.96531446862562     -0.99304206628498
  C   -3.91681615371187     -0.89002792595800     -0.73901874135071
  C   -2.55436906767347     -0.74524261723578     -0.40367228233020
  C   -2.17963255657780      0.46992508285571      0.25661253565372
  C   -0.85569764949664      0.89075549907464      0.48620755379808
  C   -0.73512997997442      2.15154150981281      1.10182612452519
  N   -0.69321301703168      3.19859519256546      1.61334012266958
  C   0.39602499913097      0.30886577896025      0.03470486590310
  C   0.60506015649522     -1.14119753333517      0.04331813555158
  N   1.74955415383109     -1.70020961583052      0.43467266557467
  C   2.99171144352754     -1.25369242502252      0.42837887179187
  C   3.51420303040280     -0.13534021034520     -0.24836837751187
  C   2.77281953337795      0.97696699421571     -0.59324851730917
  C   1.39046278165605      1.18203798276656     -0.33311255447370
  H   1.07072370904128      2.20897276476776     -0.45694931920339
  N   3.40951953354679      2.01951573709511     -1.21009785260579
  H   2.95895599571534      2.91674608409824     -1.21031946483610
  H   4.41234959929481      2.05557599546457     -1.17436113450334
  H   4.58649078526563     -0.09744749122191     -0.39919004790499
  N   3.86188287696975     -2.02730312999670      1.13648676834679
  H   4.84894698551921     -1.86508204775247      1.07529764310543
  H   3.55624812943290     -2.95035709843116      1.38622386446737
  C   -0.39182547622789     -2.04165643002253     -0.35162637775545
  C   -1.72558167664557     -1.83828026848346     -0.62868865837941
  H   -2.23558004334807     -2.69937898504081     -1.04277595344558
  H   -0.03030033485752     -3.05420781833425     -0.47064064275765
  N   -3.18838810582851      1.26920403203003      0.66470228199044
  H   -3.00370999030727      2.18140084330321      1.04239882288305
  H   -4.14186955844917      1.02550076271294      0.46507168410936
