25
Coordinates from ORCA-job ./opt_b97-3c_parallel
  N   -4.51490245787180     -0.08977055521881      0.75030946969372
  C   -3.43713631439700      0.09453739824556      0.35032286480130
  C   -2.10894148531157      0.26275485576628     -0.09124860079584
  C   -1.17080511051711     -0.66507825477135      0.34769234597964
  N   -1.51146728903551     -1.65911228980916      1.18507169163494
  H   -2.43639804034408     -1.71538541854224      1.57889523298213
  H   -0.80208652675095     -2.26911416675162      1.54550783359664
  C   0.20891894235331     -0.65549967497686     -0.14378747711079
  C   0.82292085996977     -1.80317369562336     -0.54248695657743
  C   2.17164053959759     -1.92727703895826     -0.96518705198989
  C   3.19677531217793     -1.08564810124992     -0.64838049171744
  N   3.21430792340804     -0.06040790007590      0.23935907651141
  C   2.18185503163383      0.64370118632796      0.57477849380929
  N   2.25903759304401      1.43402693514116      1.66987382225887
  H   1.56177419527018      2.13346183985313      1.83797597425240
  H   3.14304912599185      1.51119635045499      2.14239332271235
  C   0.86980942010211      0.64498018930501     -0.13228088615436
  C   0.37155906780857      1.77890269764834     -0.66306664403601
  N   -0.80054674276326      1.95591510959237     -1.35517853501835
  C   -1.86954891103766      1.28610302755233     -1.08712257399051
  H   -2.75071136550048      1.57055264737749     -1.65789116770378
  H   0.98043820526528      2.67703045718643     -0.61685498927385
  H   4.17666904046876     -1.31852865782334     -1.05077748352376
  H   2.42462315123842     -2.80310899624807     -1.54865737069394
  H   0.21235506339965     -2.69792455070318     -0.60331725344683
