30
Coordinates from ORCA-job ./opt_b97-3c_parallel
  N   -2.91568380371302     -3.28326350859316     -1.28719863014960
  C   -1.92625014621535     -2.77202053330276     -0.95052073230850
  C   -0.72501200378476     -2.15744943549808     -0.52340279163544
  C   -0.84547094143298     -0.80616859494029     -0.02842968603291
  C   -2.08702576465899     -0.38884721645383      0.38530449680756
  C   -2.52594778178243      0.89453236142670      0.80293100194759
  N   -2.05392594830245      2.08999322680467      0.49130196628228
  C   -0.96898928440299      2.30156635465571     -0.25284387506490
  N   -0.90998060191315      3.54308944879194     -0.77023844429003
  H   -1.62266364166860      4.19273660171032     -0.49300798044820
  H   -0.08499758091723      3.88649834766011     -1.22979713728649
  C   0.14224173474797      1.43306781652678     -0.48314465334843
  C   1.20385023841479      2.00727879210930     -1.21118825124915
  N   2.00227453953551      2.54259720201556     -1.86895520158939
  C   0.31072937498406      0.08543031919769     -0.04422072002496
  C   1.61504911446490     -0.29231521871222      0.33881283509663
  C   2.44216659686302      0.74947521584705      0.82230092124362
  N   3.18189755793969      1.51010445183134      1.30026249894729
  C   2.25542063949903     -1.57738288488602      0.32032359918684
  N   3.51772138414610     -1.64579203558857      0.80244918868822
  H   4.02620754883290     -0.81330005108228      1.04612280712745
  H   4.04636467927034     -2.48998960303885      0.68937992579882
  C   1.70377717488089     -2.74505896680144     -0.20296434622896
  C   0.40585700396692     -2.95875514353612     -0.60829202861953
  H   0.21850908083273     -3.94262148439124     -1.01937150115655
  H   2.37090956171512     -3.59400627664035     -0.27997586738584
  N   -3.63383221775036      0.92283460351980      1.57779996666635
  H   -4.06988446170990      1.80956874687163      1.75462307651202
  H   -4.13412118947674      0.08490856073534      1.80484455815531
  H   -2.83935217646483     -1.16278634933883      0.45421815565915
