27
Coordinates from ORCA-job ./opt_b97-3c_parallel
  N   4.04529192710289      1.94929680149666      1.63256259222043
  C   3.26502078305896      1.24053475858720      1.14259218114420
  C   2.29927399950814      0.39871399818191      0.53715894661689
  C   2.57944856249455     -0.94664340486561      0.47604665950507
  N   1.93941541628725     -1.91232968843972     -0.20733153863269
  C   0.67514294576094     -1.90330143532812     -0.51212501775031
  N   0.22833427902513     -2.85988015464173     -1.35199024755960
  H   0.88573021574841     -3.49887826778292     -1.76428319684609
  H   -0.72461132132881     -2.86326935939083     -1.65926449768043
  C   -0.34513871467473     -0.95544840760080     -0.00851716242557
  C   -1.47473758708738     -1.41683257157087      0.58098149984962
  N   -2.51947581965365     -0.72505422670691      1.10277407307889
  C   -2.92686927326516      0.41696213365772      0.61981496096098
  N   -4.06758937430631      0.93390328939791      1.18715081562103
  H   -4.33866927864098      0.48077700892594      2.04452576974398
  H   -4.17395405085421      1.93323513101819      1.18385682428162
  C   -2.42862988275313      1.15130518541256     -0.51629926552594
  C   -1.13252166622721      1.20897043512847     -0.92827707584192
  N   -0.74330371205953      2.05961386558897     -1.92665279683736
  H   -1.45284484263262      2.46036768835685     -2.51611077132927
  H   0.12711406400052      1.85786268628059     -2.38580379102380
  C   -0.05052637533157      0.45103979806244     -0.27865715948117
  C   1.14227233675651      1.03946950563171     -0.02845797031948
  H   1.23324457106394      2.10179530229538     -0.21680451925371
  H   -3.14797725370180      1.78771367656871     -1.02060912326973
  H   -1.54187269592682     -2.48885619625148      0.74817422863984
  H   3.50007708053667     -1.27726083141129      0.94347755201400
