28
Coordinates from ORCA-job ./opt_b97-3c_parallel
  N   1.64166420395320      3.81678478335921      1.31968404971437
  C   0.87068356054057      3.01134762974836      0.98644769008757
  C   -0.06157681832872      2.03041136334569      0.57328117745401
  C   0.48493389092726      0.76618292472618      0.16133302912078
  C   1.80919518251256      0.71591872228192     -0.21785000186865
  C   2.63234359816946     -0.39592808779196     -0.54613565745664
  N   2.50052800383769     -1.66966713694508     -0.20639565076175
  C   1.42862034270243     -2.07949909828550      0.48903430704220
  N   0.18729878708496     -1.62179855942927      0.51417035881086
  C   -0.32890441888085     -0.45322869278649      0.15937144538642
  C   -1.69289416092674     -0.52052778926398     -0.21659861021734
  C   -2.16891737690723     -1.83588541893198     -0.43409684277716
  N   -2.67845192083551     -2.85858069895934     -0.65513403313617
  C   -2.67604731863182      0.50397180965906     -0.33830872002984
  N   -3.88632845854881      0.14738487297326     -0.83631939555465
  H   -4.65791300453204      0.78125508949106     -0.74433285927457
  H   -4.11280500348676     -0.82372193380710     -0.96849437535016
  C   -2.52316928588646      1.83487827688276      0.06465522194634
  C   -1.38577446193656      2.45938221399154      0.51572952771311
  H   -1.52998013592818      3.48441355352002      0.83347525279022
  H   -3.41390040765283      2.44831531239014      0.01770268378571
  N   1.62710039219356     -3.20222177588633      1.21677542020292
  H   0.81897118918610     -3.71246767776247      1.52338283615758
  H   2.48893164072835     -3.69816954020754      1.08357161307456
  N   3.75191443804376     -0.11981271894709     -1.25617282665379
  H   4.03359766440661      0.82703007496931     -1.42631283335564
  H   4.44520619551728     -0.84223730294311     -1.33269018277380
  H   2.29468699367960      1.67665478261028     -0.32614179887262
