26
Coordinates from ORCA-job ./opt_b97-3c_parallel
  N   2.04397365067295      2.33480615836610      2.24542377461917
  C   1.26787571958658      2.04563394503909      1.43063886483210
  C   0.29134643220174      1.68311151208862      0.47217390165847
  C   -0.48934480158573      2.66493300482750     -0.06769214002954
  C   -1.63817724063601      2.50290262483874     -0.86576768785977
  C   -2.43705504015348      1.39905787397160     -0.87901083497411
  C   -2.25300267078685      0.16912925804836     -0.18853063588630
  C   -3.42364965726534     -0.62789473616241     -0.07304825166152
  N   -4.39216954130601     -1.26303090115926      0.01014504602879
  C   -1.07155936165665     -0.39143746444667      0.29851646871052
  C   -1.10690497690633     -1.60415632291953      1.05656070690533
  C   -0.17797951513970     -2.60064464676845      1.05484518706114
  N   0.90034421248605     -2.79171568808637      0.27133331760153
  C   1.53690025445393     -1.85704866821083     -0.37909141089215
  N   2.49441782236243     -2.25594206499366     -1.23642228776253
  H   3.13370567435895     -1.60428010593653     -1.65523711475195
  H   2.73354182318234     -3.23212447354207     -1.24033380184109
  C   1.37614154780591     -0.40318894764056     -0.20796764246946
  C   2.53000025482645      0.36495249250170     -0.49759317335560
  N   3.50017245545818      0.91224258213556     -0.82838562097717
  C   0.22056982268069      0.24958391979005      0.12852925182565
  H   -0.38060607736559     -3.44425200177912      1.70561897728869
  H   -1.99161108113840     -1.77093180689295      1.65713466320626
  H   -3.37687583480122      1.48424172495063     -1.40861230577568
  H   -1.99741892528184      3.37972622318599     -1.38668536619430
  H   -0.20171236025268      3.68219008969466      0.16796372539382
