29
Coordinates from ORCA-job ./opt_b97-3c_parallel
  N   0.70079246619936      4.25800901409986      1.06808807696543
  C   0.86292054991722      3.14268040016092      0.78575117952785
  C   1.05388737616823      1.78011061826688      0.44031708120033
  C   2.37209970281931      1.35850721938948      0.41908697371243
  C   2.94833975943832      0.15393376426989      0.02867715033096
  C   4.35941511189151      0.12152501077217     -0.04547169012670
  N   5.51601070356807      0.03171454361724     -0.12841296619322
  C   2.27653251561606     -1.05905100665773     -0.29193095579575
  N   3.02637853045100     -2.08904518255972     -0.70964399547193
  H   2.61859318517656     -2.99514102075676     -0.86589323407883
  H   4.02894293939164     -2.01258861224284     -0.74069732103467
  C   0.88124431062927     -1.29069358260190     -0.11996502193087
  C   0.48452646770237     -2.64705279303850     -0.21580949993348
  N   0.26264079388018     -3.78227454912788     -0.33578038000921
  C   -0.17624155609060     -0.40513552901494      0.18562527671017
  N   -1.27573498366235     -1.01310052950273      0.62521603603495
  C   -2.55738527897159     -0.82567267896876      0.46773306043351
  C   -3.15536732589340      0.14523398094520     -0.42181540247121
  C   -4.50219145035022     -0.03959827464427     -0.79161380001467
  N   -5.61680033274748     -0.24260801475159     -1.05605835956919
  C   -2.50440311509496      1.31748018650679     -0.74392045346895
  C   -1.22427111626859      1.74898278358368     -0.40048304715202
  C   -0.12323356175966      1.04654040427222      0.07235748104636
  H   -1.04339991560624      2.79587365257718     -0.60226331288234
  H   -3.09583908852328      2.03883150101953     -1.29283427683241
  N   -3.37187719868195     -1.61313252186292      1.18890530813927
  H   -2.97202525025531     -2.38263865719948      1.69534312410106
  H   -4.36972967775716     -1.56511567196802      1.08763346629260
  H   3.08865584381666      2.12166595922156      0.69077137397434
