30
Coordinates from ORCA-job ./opt_b97-3c_parallel
  N   -2.73220053809489     -3.41497704852869     -1.53669960401970
  C   -2.11800707420400     -2.54965655092136     -1.05649445250842
  C   -1.42717858941294     -1.47309397386417     -0.46583239307764
  C   -0.11729583340334     -1.74459821412785      0.05854285843540
  C   0.87575458925131     -0.85185037954979      0.21531435682622
  C   2.15533404492500     -1.22071340582729      0.85777068297541
  N   3.31871672554064     -1.08312039548274      0.28934747171753
  C   3.48481973983173     -0.44390929339776     -0.88819182572417
  N   2.88045882167263      0.58061710355802     -1.41220098542667
  C   1.78061945314567      1.18574053652586     -0.86294540486579
  N   1.72272008804084      2.54050865344660     -1.17711953077317
  H   0.80206081050919      2.90548521731984     -1.36601003747944
  H   2.37119239518903      2.75948589841243     -1.91724203962874
  C   0.80364844978350      0.56900481820374     -0.12010205295163
  C   -0.30712852176425      1.30888057770235      0.47519293178510
  N   0.00895325256457      2.42884883262783      1.15758385664650
  H   0.93685292557221      2.80311214831516      1.06794066228114
  H   -0.70811934005527      3.03841282020707      1.51504163677004
  C   -1.62955171310673      0.88932086712186      0.38822342894762
  C   -2.59699763788876      1.73142764986673      0.96910791787082
  N   -3.36471328838685      2.46871595087071      1.44364468316229
  C   -2.12264006724471     -0.27748796657720     -0.32773515371459
  N   -3.38400530910509     -0.16985341728880     -0.82071951340208
  H   -3.86884838568307     -1.00486121145270     -1.10351460200568
  H   -3.96048582939782      0.60330829775005     -0.54100146200257
  H   4.34375625642240     -0.79803084719218     -1.45133881296087
  N   2.09640195351262     -1.74339971438448      2.09365026664120
  H   2.94778018519654     -1.97062305314016      2.57834530544977
  H   1.21704806686169     -1.85266591398901      2.56103398645226
  H   0.07831670642869     -2.77820010240384      0.32079533307989
