27
Coordinates from ORCA-job ./opt_b97-3c_parallel
  N   5.91786261750589     -0.06756664809836      0.47511374640114
  C   4.77168160055980      0.01130856488608      0.30488162972028
  C   3.37601574248608      0.08843369613962      0.09579856734611
  C   2.78575730622746     -0.78252615380044     -0.84902892341021
  N   1.52772704104340     -1.06147743670998     -0.92839241038365
  C   0.42783242357480     -0.67249232888653     -0.29141044929997
  C   -0.49832271192380     -1.66827254229535      0.07132199320137
  C   -0.01351063726304     -3.00239321988120      0.07439774832836
  N   0.36826547455078     -4.09819040694690      0.09659533386002
  C   -1.85168584107108     -1.49331920966243      0.36967934452289
  C   -2.67517449516060     -0.39200792625817      0.25505220660874
  C   -4.04813134328529     -0.59896867768009      0.52848218058689
  N   -5.18772098883579     -0.70766937159406      0.73093935920745
  C   -2.31678704665956      0.93174537355812     -0.18442150770940
  C   -0.99407315889759      1.42492887077064     -0.28517974488262
  C   -0.89088967894879      2.80654938805324     -0.55401812344279
  N   -0.86998488026642      3.94673593690608     -0.78613758808224
  C   0.23399616527298      0.74488631932268     -0.03514139398723
  C   1.31460580380184      1.47107449197650      0.48507329341642
  C   2.64796084753162      1.13234884355898      0.66283518024181
  H   3.22265817144495      1.83370459830249      1.25347387855995
  H   1.04806491025943      2.44141343086794      0.88255353203168
  N   -3.32740624504836      1.77069646412187     -0.44625357717308
  H   -4.28248207327347      1.48636184346179     -0.30844832909933
  H   -3.15426608448071      2.72974671616790     -0.69639712190504
  H   -2.35892717971387     -2.40003423664220      0.67005395269433
  H   3.42525921486754     -1.25504527575437     -1.58728081103926
