30
Coordinates from ORCA-job ./opt_b97-3c_parallel
  N   5.38185198620488     -0.20663049587071      0.64407629574469
  C   4.23464520626837     -0.09848359925168      0.48684395093445
  C   2.84838435859864     -0.02840160516369      0.23335232155654
  C   2.11748029936686      1.00844592799135      0.76421584532834
  C   0.77314521240764      1.36874415664051      0.56230282321349
  C   0.41456358243085      2.60556743417400      1.16078699277072
  N   0.15073271907807      3.59273927002310      1.71260597454758
  C   -0.26507943299142      0.61915035600927     -0.03919756839805
  C   -0.07573344968685     -0.82583257101580     -0.21169968516569
  N   1.02996654300908     -1.30934916680958     -0.77142251022071
  C   2.29039549727354     -0.98083069199731     -0.69987861740615
  N   3.12682508549918     -1.60495223335140     -1.54881670340489
  H   4.12017117352040     -1.47067374339617     -1.48973589079339
  H   2.77780739387824     -2.38727058747979     -2.07262860891493
  C   -1.04845139156126     -1.75743437086356      0.15522321867357
  C   -0.65503070897962     -3.11209514420216      0.18506332187236
  N   -0.40411425405489     -4.24566306171122      0.25670878955239
  C   -2.40912987953904     -1.46845505411218      0.52529870666760
  N   -3.15116082860214     -0.45321712206294      0.12835717768501
  C   -2.74992272969401      0.64127834360510     -0.50874423084322
  C   -1.44901700410356      1.24462906837440     -0.47487163014381
  C   -1.38559262463989      2.57315016914441     -0.94151067401645
  N   -1.42238155402356      3.63444697518394     -1.41758978257050
  N   -3.73051053661445      1.29719853109003     -1.15151046932076
  H   -3.57906141445791      2.21058409591510     -1.54348802902858
  H   -4.67278065922961      0.97661107751478     -1.02007097222259
  N   -3.04811514958210     -2.37914983800516      1.27922762053023
  H   -2.60737870254609     -3.24364036800832      1.53869416337190
  H   -4.04249040577860     -2.29142668496524      1.38788431487261
  H   2.67469654774472      1.69396890419684      1.38762636623666
