25
Coordinates from ORCA-job ./opt_b97-3c_parallel
  N   4.18875665752933      1.02564445111554     -1.45458041919606
  C   3.16863834318872      0.70808486719664     -0.99330443974211
  C   1.96511547828564      0.27299698700614     -0.39412550608250
  C   2.06201622978839     -0.88361304573787      0.54147720298611
  N   1.12266837854742     -1.69218062839964      0.89830267742639
  C   -0.16167405727880     -1.64033455109094      0.42501343693303
  C   -0.92211516814697     -0.58373163368265      0.06558097298475
  C   -2.29812199299065     -0.83908686133634     -0.44112089605433
  N   -3.39175212621985     -0.24923090278059     -0.07260913108846
  C   -3.46358385400939      0.87296290332826      0.67794622296207
  C   -2.56119375591596      1.89313669965895      0.77323085373777
  C   -1.24897956092361      1.89473444016842      0.25074629144636
  C   -0.46494407087751      0.80695287901331     -0.04329275448001
  C   0.85752420263677      1.05401841449663     -0.53162043440526
  H   1.01008250837438      1.99771966978145     -1.04519598620365
  H   -0.78160330538186      2.86700585221253      0.13719759922882
  H   -2.90550880382891      2.80604437559276      1.24224140468995
  H   -4.43242622441442      1.01588183756155      1.14513144875123
  N   -2.40811012613878     -1.83459675876920     -1.35336454426780
  H   -3.29613984787397     -1.95626063573454     -1.80962211906376
  H   -1.58659066129485     -2.18735176765392     -1.80617462130831
  H   -0.64052517436131     -2.61418977328655      0.42843604380543
  N   3.28513534546083     -1.05133535370888      1.09977181116695
  H   4.09547988790313     -0.58581750524013      0.73389497078584
  H   3.42163838053877     -1.87501954811219      1.65813928388247
