23
Coordinates from ORCA-job ./opt_b97-3c_parallel
  N   5.28853614954334      1.03176796418114      0.10357944979798
  C   4.20189409142463      0.62523947790914      0.05480501650020
  C   2.86879494110752      0.13860909364806     -0.00445702096708
  C   2.72537418642715     -1.24299692005132      0.01820245261766
  C   1.58851897381930     -2.06017374319849      0.02172725196880
  C   0.23830055777347     -1.74258289453465     -0.05830072641648
  C   -0.19963201163517     -0.40640854587521     -0.26391697207628
  C   -1.45868398962014      0.23372207347550     -0.40356204291623
  C   -0.81680934273072      1.49129519459536     -0.24696217279693
  N   -1.60673102230174      2.46577460168603      0.15102975125318
  C   -2.85337453755994      1.85776012232490      0.18904326406129
  C   -2.82288561374015      0.47994147768996     -0.09181610514616
  C   -3.86962115649844     -0.45009341382635     -0.05638654000104
  N   -4.68451318558708     -1.27938626872909     -0.01744803328369
  H   -3.73217649502191      2.43735747077917      0.42323208062333
  C   0.53091077703708      0.83176350198483     -0.20206030256109
  C   1.84546892352620      1.12715334610422     -0.06432928292325
  H   2.14212225529778      2.16345992393088      0.00834841590514
  N   -0.72648078430932     -2.69245707177501      0.00364065676799
  H   -0.50866804574672     -3.63669932661779      0.26215884151435
  H   -1.69714602105726     -2.43392320711928      0.01273465419375
  H   1.80725314570468     -3.11938856040098      0.10320334783982
  H   3.65665054074746     -1.79005562288101      0.07079836114479
