21
Coordinates from ORCA-job ./opt_b97-3c_parallel
  N   0.98427632089512      2.93125325490463     -0.29849944209046
  C   1.13599543858836      1.60667327548772      0.02504485423629
  N   2.42029182854206      1.16192712420383      0.04277822913550
  C   2.82609914051858     -0.08147498144702      0.05598301085637
  N   2.23020075736894     -1.28999988098135     -0.06965224809034
  C   0.94562776314018     -1.54007692314703      0.03433716168864
  C   -0.04288837030390     -0.58008594264970      0.45564549195014
  C   -1.43725348892992     -0.55834778038054      0.71935440254677
  C   -1.46373526617182      0.85325530353914      0.45364373659817
  C   -2.69019037366046      1.07867537883851     -0.11879980494027
  C   -3.36654527648574     -0.20195248471357     -0.04975542809626
  N   -2.59803576335242     -1.19944141345275      0.39749463413093
  H   -4.39604956018141     -0.38356724640053     -0.32854582773283
  H   -3.08804189359330      1.96990006110539     -0.58073580127931
  C   0.04473277180074      0.81869832374361      0.30750173613596
  N   0.49218788468017     -2.77571629563334     -0.23368454303003
  H   1.13111478379723     -3.47276247548548     -0.57324550866368
  H   -0.49130411417258     -2.97961375100212     -0.18793413715650
  H   3.90516223544523     -0.17657375455102      0.12470791274744
  H   1.82054833817668      3.48181375416805     -0.19824155465289
  H   0.13874359409828      3.37998071705362      0.01141693750628
