28
Coordinates from ORCA-job ./opt_b97-3c_parallel
  N   4.38872353422954      1.98377510203102      0.20894243113428
  C   3.42697759279966      1.33098297557102      0.10146554507788
  C   2.27931651005186      0.53042452432395     -0.02274995796476
  C   2.50448219666146     -0.84504575922937     -0.10289700178734
  N   3.81048910655753     -1.28253126909557     -0.19243406591523
  H   4.53634056073969     -0.60978329392506     -0.00644669177176
  H   4.00592418881007     -2.19573666369253      0.17762329010689
  C   1.56864161864808     -1.93218566857869     -0.16740143187631
  C   0.20855112615674     -1.96477989734138     -0.01108069625763
  C   -0.56896611307543     -0.78541947967947      0.20249360836724
  C   -1.91724464048025     -0.47771932297389      0.34287979023853
  C   -1.64657967370517      0.93013036390519      0.15924694210587
  C   -2.84183926552433      1.50973369268090     -0.08168074742066
  C   -3.80286953545129      0.37689884548109      0.03379411983003
  N   -3.24057203954042     -0.80844580982781      0.25885126464551
  N   -5.14869022255351      0.53779946953703     -0.03866883858458
  H   -5.68761301609159     -0.30536681316878     -0.14210108448723
  H   -5.50258026711960      1.33681085621208     -0.53329261347463
  H   -3.10874693959436      2.52362955307397     -0.34093342407877
  C   -0.17531747051970      0.61808333635730      0.10491388827583
  C   1.00249535883199      1.24816167606474     -0.03183020850555
  N   1.05943301451122      2.62865730065247     -0.24054243435890
  H   0.24305410233989      3.11030505015446      0.10128459019298
  H   1.90050560692224      3.07000344709817      0.09963975160594
  N   -0.50201533799729     -3.12319913357058     -0.10850714907242
  H   -1.47139149414296     -3.10990203272257      0.15499788325567
  H   -0.03352470614203     -4.00781977085659     -0.04097529385431
  H   2.03458816877793     -2.89020186008056     -0.37236390172669
