19
Coordinates from ORCA-job ./opt_b97-3c_parallel
  N   -0.98823237154517     -2.47259464944457     -0.23264241882272
  C   -1.23051520062165     -1.17377084629205      0.03818225364286
  N   -2.45494577481592     -0.73185374927130     -0.00071181270085
  C   -2.87950074317127      0.55900551202563      0.13906824158840
  N   -2.30919764243221      1.72174237746842      0.00603182780113
  C   -0.97031853467787      1.95043978065199     -0.12766272528695
  C   0.00085795333089      1.04894979716634      0.14589544044239
  C   1.48165073384005      0.81991345723722      0.20979182242047
  C   1.28986002350468     -0.56108806740747      0.63041478413523
  C   2.52882482584469     -1.20237946988570      0.34747600972956
  C   3.30337856795009     -0.19739565191551     -0.19708786061347
  N   2.62676130607810      1.02887872246797     -0.37386984236811
  H   4.33515483342614     -0.27199084817323     -0.50638014596223
  H   2.84917356809339     -2.20930830286462      0.56083219897739
  C   -0.07625285382420     -0.36509529203683      0.39972476309043
  H   -0.70218837607038      2.95864994894170     -0.41749407758757
  H   -3.94965388471229      0.60544723970503      0.31255524007567
  H   -1.73695793583804     -3.03130947444506     -0.60399890050403
  H   -0.04493566315912     -2.79485715612788     -0.34937029825753
