25
Coordinates from ORCA-job ./opt_b97-3c_parallel
  N   4.00333329290839      1.44301910123963      0.05046318004850
  C   2.89809350332972      0.62186091788366      0.02928825892014
  C   3.15739143518451     -0.77022327448966      0.03962910821684
  C   2.31537321067507     -1.86787481749400      0.04554193759809
  N   0.97766394297864     -2.01313839165445      0.05031353077035
  C   0.20843080361655     -0.95126488509672      0.07342266615155
  C   -1.17902656292405     -0.69343139316635      0.07958196918475
  C   -0.93853332592934      0.74153483021937      0.08616021933334
  C   -2.17739725449743      1.39210007120439      0.01915580328393
  N   -2.43110933051167      2.74612732813361     -0.06581118224882
  H   -1.71865136054586      3.33289363239583      0.33419463648318
  H   -3.35144657956928      3.02841577217717      0.22890498760733
  C   -3.16060641113506      0.36874915126201     -0.03456699942727
  C   -2.55957006607008     -0.91713012817114     -0.00507110476061
  N   -3.22510967602674     -2.11884616488964      0.01464207678056
  H   -2.66733985408432     -2.91724371719825     -0.23635834942336
  H   -4.13405759797987     -2.12937769778217     -0.41651072425896
  H   -4.22595563607459      0.54622841604406     -0.08546721682177
  C   0.46148957174478      0.54838235811061      0.08127750604847
  C   1.64062948735388      1.24632498874781      0.04492558692967
  H   1.61412867042408      2.33091580844214      0.02971062881177
  H   2.83738819302814     -2.82110851503219      0.03868317993879
  H   4.21028436801550     -1.03212284729453      0.04132202233914
  H   4.87614132577283      1.04505157681144     -0.24832772038229
  H   3.87345990031614      2.39567245609740     -0.24080659272336
