28
Coordinates from ORCA-job ./opt_b97-3c_parallel
  N   -5.23824541877537     -0.83981686510272     -0.00062887565343
  C   -4.08206578822587     -0.71715628104161     -0.00023650148606
  C   -2.68094120251317     -0.49393400173254      0.00035324961017
  C   -1.92007780803365     -1.66973800859517      0.00292795941930
  C   -0.53891683271881     -1.87905457575680      0.00635962315381
  C   -0.01056075655511     -3.19463140795287      0.00478155051865
  N   0.51741664075786     -4.22929280603810      0.00000477063444
  C   0.38939807484365     -0.84956621571995      0.00505338637121
  C   1.76520225399664     -0.62538683113163      0.00783616159994
  C   1.56447839369673      0.81915957291677     -0.01499172266908
  C   2.85115253111919      1.37977563214032     -0.02255214671396
  N   3.79249249851220      0.38636016413114     -0.00534727632320
  C   3.16594391627815     -0.81721825756127      0.01331531940134
  N   3.85557463229321     -1.96606839198623      0.06673183611755
  H   3.38085462453364     -2.84363524864963     -0.04235719611464
  H   4.85222367808137     -1.94292111938969     -0.05114292277009
  N   3.22464526221907      2.66835848466296     -0.08234422868359
  H   2.54376149612430      3.39264920779795      0.05554362179431
  H   4.19201405111120      2.89472178689060      0.06247008786555
  C   0.17214297177647      0.64208273915996     -0.00901615608838
  C   -0.97840807974314      1.40340017291105     -0.00614381622717
  C   -0.77996356945185      2.80308809770632     -0.00217560523205
  N   -0.57983557484160      3.94849306044188      0.00502432556259
  C   -2.31030428238735      0.89236714984388     -0.00078740143181
  N   -3.30717912065972      1.80275932454960      0.00461705242873
  H   -4.27088493422603      1.51904686374061      0.00224403173278
  H   -3.10798620433672      2.78663662793708     -0.00496209598650
  H   -2.51510352557529     -2.57226754067197      0.00242085296960
