28
Coordinates from ORCA-job ./opt_b97-3c_parallel
  N   5.00642204672531      2.27193503889710     -0.01092832847057
  C   4.06211060925633      1.58906740429951      0.00116436876575
  C   2.95708600042323      0.71827418751348      0.01066776457149
  C   1.65764309647132      1.33924904202622      0.01539968100884
  C   0.50462743147916      0.66344282299792      0.05543788161859
  C   -0.98041814565485      0.85038185625188      0.07167947761569
  C   -1.16823048503292     -0.57795963862358      0.10987607651970
  C   -2.55733916316050     -0.87692948797190      0.06707086184806
  C   -3.18340856337560     -2.12375208715115      0.06521294802781
  N   -3.68835171305435     -3.17381339817958      0.05774957667326
  C   -3.20141113836918      0.37183086202378      0.00596559741244
  C   -2.19075091875555      1.46694819241000     -0.00319273841200
  C   -2.54666872060280      2.81926679897305     -0.09707863181514
  N   -2.91947485639353      3.91725812084623     -0.17701687762900
  N   -4.51410217640624      0.61322602091738     -0.03586777527340
  H   -4.86372598866326      1.55019570568486     -0.12785585875870
  H   -5.17677976200543     -0.14100102879213     -0.06204396154448
  C   0.21166956820012     -0.76226794577614      0.07361226290821
  C   1.15098632061302     -1.85600758285904     -0.02187541034183
  N   2.44768758260849     -1.75523317681675     -0.03091067615801
  C   3.25710408150202     -0.65502138246283      0.03653530253964
  N   4.55864380019482     -1.04022368946483      0.14601782780720
  H   4.75963844903343     -1.99993457545291     -0.06502422236729
  H   5.29795169569604     -0.36820841259341      0.03734650566622
  N   0.60975998572225     -3.08699022849934     -0.11571264057462
  H   -0.38321053274979     -3.23319429438228     -0.10942019638030
  H   1.21728329334527     -3.88480389302490     -0.17410620453052
  H   1.63996481935318      2.41934042990935     -0.01147994032699
