23
Coordinates from ORCA-job ./opt_b97-3c_parallel
  N   4.51251918576773      1.58882681050153      0.03454773869343
  C   3.58369229492857      0.88657746129712      0.02027989431501
  C   2.41439961645655      0.09907024330909      0.00281094390303
  C   1.21571735649217      0.80661173039662     -0.00537267495557
  C   -0.04068809195976      0.12196001815918     -0.02435825087900
  C   -1.39184109170284      0.44138983143978     -0.03413454282537
  C   -1.76640516583762     -0.95477282453215     -0.01278833909603
  C   -3.11349061442719     -0.98407400421415      0.02227584926786
  C   -3.47856541453985      0.46078729013363      0.01634392570749
  N   -2.43941433324886      1.30417233303515     -0.01375551340975
  N   -4.74941571925275      0.89889161804158      0.00530225145542
  H   -5.50155813082087      0.27440356448396      0.22723535693539
  H   -4.91235643316881      1.88260355956664      0.12937796512536
  H   -3.81618385124920     -1.80271232619759      0.04939509956576
  C   -0.31186173245073     -1.31987841113839     -0.01418342209027
  C   0.48594042654432     -2.39581655917252     -0.00377617225897
  N   1.87040536771655     -2.38702344992316     -0.01357846200218
  C   2.63411967702319     -1.35145451825826     -0.01175415261165
  H   3.69639888378138     -1.58591353387739     -0.02102776044414
  H   0.04761984331067     -3.38538346034386      0.00767297899494
  N   1.15969724001858      2.14925269399544      0.00519261558482
  H   1.99630611319489      2.70729278379066      0.01516420893743
  H   0.27170750572394      2.61748259560703     -0.00498243501294
