25
Coordinates from ORCA-job ./opt_b97-3c_parallel
  N   -4.76180322199107     -1.44762664897778     -0.08091939108093
  C   -3.75563880407716     -0.86524274820338     -0.03459476447312
  C   -2.49931976179650     -0.21510390523706      0.01682663950416
  C   -2.55393327659779      1.16265079627929      0.02280126587446
  N   -1.63209058763774      2.15229031505261      0.10369239641634
  C   -0.33563791063169      2.02927216801469     -0.01087108732551
  C   0.38437492782299      0.80458121252525     -0.26804394126949
  C   1.70900532947930      0.40800919019002     -0.41196522705918
  C   1.34731530270293     -0.97661998966463     -0.21080525688572
  C   2.49813008024771     -1.62552690459247      0.06461814074635
  C   3.53213785660895     -0.55938270067239     -0.06164727980327
  N   3.04729212589536      0.65519881181384     -0.31500907110600
  N   4.86034017520930     -0.80278998268689      0.03577129834388
  H   5.46031796816359      0.00062640168448      0.11278273182198
  H   5.16525580189270     -1.62512439193946      0.52373797103579
  H   2.69322400525298     -2.64689406277092      0.35592643449317
  C   -0.09998549058359     -0.56386272695044     -0.14417288340335
  C   -1.32700175583709     -1.09194676210957      0.02196207736555
  N   -1.52444486052307     -2.44792171199543      0.26358260013379
  H   -0.78141824079644     -3.03339257737069     -0.08211641192490
  H   -2.42744242024968     -2.80082845222502     -0.01427133971603
  N   0.42346191636184      3.13346759427295      0.11844263675083
  H   1.42563157746791      3.07888386510408      0.08553717814535
  H   -0.02156932884348      4.00911925555190      0.32976694644778
  H   -3.56134196794028      1.56180988620673     -0.00654870723209
