25
Coordinates from ORCA-job ./opt_b97-3c_parallel
  N   4.16903657707760      1.77884180917122      0.06392053707202
  C   3.16369798978346      1.19034619977218      0.08707286856670
  C   1.96381491042117      0.45451804034845      0.09424048596850
  C   0.74947892009853      1.23433944526028      0.15173277708367
  C   -0.46206795106257      0.66394761166351      0.39413457855643
  C   -1.93951111708681      1.00714965045531      0.42360204920527
  C   -2.27461997250308     -0.33375776609063      0.78368897038318
  N   -3.52604341495484     -0.63077274811297      0.29432631966925
  C   -3.86755363616683      0.52626502105813     -0.26250377987679
  N   -2.89495782382529      1.53675364550410     -0.30935510800840
  H   -4.85025612117888      0.70033514229508     -0.67723344156890
  C   -0.91394677551200     -0.66773308049345      0.53580916856378
  C   -0.26939870330114     -1.87458539536993      0.11388117134586
  N   -1.08697372402850     -2.95162570469787     -0.00293005421286
  H   -0.77064942982998     -3.77571108437914     -0.48086365170218
  H   -2.08121220481959     -2.78979590405124     -0.00142346344211
  C   1.08428007128170     -1.94033758104257     -0.10609645549367
  C   2.09720090139909     -0.94094802706929     -0.02798446145032
  N   3.36614848542151     -1.44636325494029     -0.18703773849443
  H   4.14623562053334     -0.83419791383614     -0.01622799277122
  H   3.52208657241042     -2.39805472271012      0.09083060445911
  H   1.46209039041327     -2.92026784841079     -0.37811748261199
  N   0.84397087251084      2.59869681179608      0.02365663718623
  H   -0.02454170378239      3.08554215061139     -0.11687166709219
  H   1.61148877000105      2.96921311496857     -0.51071824713498
