22
Coordinates from ORCA-job ./opt_b97-3c_parallel
  N   -1.43296605921746     -3.26795432099493     -0.00135255708881
  C   -1.25029460850250     -2.11840635440030     -0.00112340771770
  C   -1.10297537482903     -0.71824662108254     -0.00128806995103
  C   0.16885171682681     -0.15926638980511     -0.00083670426662
  C   1.52246510853254     -0.57780339715937     -0.00032139649837
  C   1.97815869531983      0.80558272711848     -0.00075719569596
  C   3.36108007137532      0.81946899918799     -0.00122955184588
  C   3.74686829542775     -0.54853394687691     -0.00101450918911
  C   2.62960216987862     -1.41581827280079     -0.00051019101240
  H   2.66669088450831     -2.49301951094892     -0.00033392974237
  H   4.77369972265780     -0.88563786326457     -0.00128876071866
  H   4.03459581232858      1.66118286794794     -0.00170595913519
  C   0.61809540434853      1.25762495958297     -0.00124834764248
  N   0.01298625284302      2.41864425063976     -0.00194676446859
  C   -1.33273110449868      2.46192225066188     -0.00228339908705
  C   -2.32646747855944      1.50596543512138     -0.00224127917777
  C   -2.28023763633544      0.08677958769795     -0.00188071121366
  N   -3.46165464432924     -0.55239360497088     -0.00212214496169
  H   -4.32410507384760     -0.04128353202522     -0.00270935375008
  H   -3.51109672640969     -1.55706462082606     -0.00202292363928
  H   -3.32889172280309      1.91769180935830     -0.00262905387167
  H   -1.71203437171499      3.48012343763899     -0.00269180632567
