28
Coordinates from ORCA-job ./opt_b97-3c_parallel
  N   5.37081487464033      0.96672631881105     -0.04513715181002
  C   4.30582235903491      0.49899348861783     -0.04493436125735
  C   2.98466116251491     -0.01052807544505     -0.03582567141019
  C   1.92933282939106      0.97674970699214      0.04796274432546
  C   0.63274262308837      0.59652825202445      0.19936628364916
  C   -0.72564982913051      1.23364385627782      0.32100120257725
  C   -1.31253264103746     -0.06297649987007      0.48251947424757
  C   -2.71440264841473      0.04175585632657      0.24070958518875
  C   -3.66089732695954     -0.98055755976440      0.22992986121864
  N   -4.42232012331318     -1.86389686150939      0.19410506559530
  C   -2.94720661982211      1.40697862832473     -0.03302346104684
  C   -1.68799599504335      2.13364341176802     -0.03739833748076
  H   -1.59046459613793      3.17185697077453     -0.31956016440127
  N   -4.16713424656189      1.99180362932402     -0.20432081237480
  H   -4.94296838281801      1.37773917445300     -0.38944794924804
  H   -4.19611810610031      2.84819036494739     -0.72928881542057
  C   -0.05339376445341     -0.66059172475878      0.27313408146953
  C   0.41875515107046     -1.98645292826545      0.02687230941131
  N   -0.52135998086851     -2.96137057206979     -0.00571214895865
  H   -0.28423375385638     -3.89680784538392     -0.27889514651749
  H   -1.49879118461203     -2.73061510035789      0.01504879791822
  C   1.76557205602110     -2.25746852845217     -0.12603529536990
  C   2.86826484284179     -1.38682044274550     -0.11081075027978
  H   3.81845831431293     -1.89926397093410     -0.18269179956853
  H   2.02371382276252     -3.30159183001515     -0.26312724596745
  N   2.24940549499790      2.31940081598874     -0.09705273537590
  H   3.20576428281916      2.56300060469890      0.10722531178306
  H   1.59961982373397      2.94796270214238      0.34618227520348
