22
Coordinates from ORCA-job ./opt_b97-3c_parallel
  N   5.00387573537665      0.39891530985495      0.00779758909120
  C   3.83949274229479      0.43348644012216      0.01890116244159
  C   2.44251181789923      0.38301465811833      0.02527159068675
  C   1.54605307498299      1.48351143500170      0.00763339534369
  C   0.27469919619429      0.93333347739909      0.00050655649992
  C   0.36891697422007     -0.51180166960809      0.01606485536623
  C   1.71618851720709     -0.87393379940338      0.03059904492528
  N   2.30693256653542     -2.08924732274547      0.09725654102307
  H   3.29553346467289     -2.15050959166753     -0.07968138192071
  H   1.77187522824033     -2.90276200968652     -0.14399983729210
  C   -1.05240087586230     -0.62173720775528      0.01245709385668
  C   -2.06617970890189     -1.55443446958849      0.02291300946320
  C   -3.42718289108535     -1.23228093278665      0.01521322891961
  N   -4.09267930503229     -0.07954814300595     -0.00199886729431
  C   -3.58190143729344      1.15472008034947     -0.01430439392174
  C   -2.27671026157178      1.64757261596057     -0.01413245803944
  C   -1.14922577128613      0.85396865280438     -0.00368893257421
  H   -2.15933892846738      2.72430558076485     -0.02369227271025
  H   -4.35391242744470      1.92022776734768     -0.02605793686344
  H   -4.09194247145568     -2.09326191232960      0.02545847673065
  H   -1.81564541368618     -2.60833351862728      0.04025817034483
  H   1.85380398226337      2.51670277938103     -0.00307518717651
