23
Coordinates from ORCA-job ./opt_b97-3c_parallel
  N   5.01471074505806      0.76442769841425     -0.00564358694051
  C   3.85589295195155      0.65587243640845     -0.00452715694978
  C   2.45673095333126      0.44934302562913     -0.00246580711010
  C   2.04533751224864     -0.93218032665681      0.00640454900724
  N   0.80760961203050     -1.46427456040223      0.00902858047523
  C   -0.27541662885781     -0.74248565143771      0.00911939166891
  C   -1.67655115683307     -1.01071788513857      0.01070910720875
  C   -1.95590775066041      0.41871952042015      0.00298422794090
  C   -3.35822922876502      0.52562866837230     -0.00639997254591
  N   -3.90694569899821     -0.72102802378418     -0.00948896002801
  C   -2.90723342184515     -1.64651022311164     -0.00243363766432
  H   -3.15103703663186     -2.69713216894832     -0.00205339314048
  N   -4.15705997923636      1.62636994894367     -0.06979035195445
  H   -3.78466457209090      2.49098938269191      0.27936085302500
  H   -5.12502731441736      1.46261278780521      0.15168025973862
  C   -0.58003515210197      0.73583725888188      0.00230716551426
  C   0.29943155961553      1.79346365704836     -0.00977997412063
  C   1.67461758888035      1.61256024318905     -0.01092591001711
  H   2.26040027414413      2.52341233478756     -0.02046800878261
  H   -0.07616905924341      2.80823710191267     -0.02201251253155
  N   3.00995609476929     -1.86889235987546      0.01265929875238
  H   3.98776985631319     -1.63943841990263      0.00784069422092
  H   2.72348326733907     -2.83083163104706      0.01462248793321
