21
Coordinates from ORCA-job ./opt_b97-3c_parallel
  N   -2.96994260127379     -2.16755179184930     -0.00258104549977
  C   -2.01532151376929     -1.21035998448147     -0.00133378949061
  N   -2.52081762247774      0.02344546812660     -0.00113732601624
  C   -1.89263186970031      1.20197040652157     -0.00026536856885
  N   -0.58974351306465      1.59572875731150     -0.00027619604716
  C   0.35653548585385      0.70174467869980      0.00005876577235
  C   1.78740019779430      0.70927160987587      0.00037584889294
  C   1.80692016975935     -0.74103965209112      0.00078662128999
  C   3.14045993856322     -1.10998063491933      0.00058491657441
  N   3.91659939900964      0.01662606506371      0.00008015428023
  C   3.11763235637237      1.11521626670469     -0.00010538393701
  H   3.54947580275810      2.10326829562223     -0.00056676236887
  H   3.60304326021298     -2.08424482827829      0.00079914678655
  C   0.37156658682347     -0.79198426328046      0.00038015312430
  C   -0.66743636122913     -1.66450445422427     -0.00025933964463
  H   -0.48359371064499     -2.73175932116474     -0.00025162970429
  N   -2.73339093988373      2.25359938171159      0.00060230898528
  H   -2.35369475516431      3.18156961637135      0.00102437749519
  H   -3.72380438730975      2.10012248129426      0.00049090754111
  H   -3.93228682505951     -1.88390560276692     -0.00402565884968
  H   -2.74474097597010     -3.14351294704730     -0.00389587111524
