25
Coordinates from ORCA-job ./opt_b97-3c_parallel
  N   -4.11050276259463     -1.79382077965681     -0.74029329575797
  C   -3.46573165763619     -0.90571897840001     -0.35311338811598
  C   -2.64168836391832      0.13341984693466      0.10075826731808
  C   -1.39450815147178      0.02660264465520      0.70607791187470
  C   -0.91826503519651      1.35701645566486      0.78684846069660
  N   -1.79428218971625      2.28705100236497      0.30393128158475
  C   -2.85989296095396      1.56058961664072     -0.04311003682584
  H   -3.78180619247468      2.02214524020929     -0.36660261759516
  C   0.42905806622479      0.88864122479100      0.50905107776557
  C   1.64280178576898      1.47756497883479      0.05545371155090
  C   2.76728344446813      0.71559302241232     -0.17322970972567
  C   2.93536539577814     -0.69693058258350     -0.04807081994921
  N   2.06829018198664     -1.68407166623178      0.07155292924752
  C   0.73516417068669     -1.60322130333575      0.20491209411142
  C   0.03307073624660     -0.44473044479817      0.50357179872274
  N   0.05582666441982     -2.78054372072510      0.09995043796123
  H   -0.94079796063765     -2.75470435969924     -0.02534316648882
  H   0.54312379416212     -3.54678588931959     -0.32938211212258
  N   4.24104458145922     -1.12504976573462     -0.17808349312144
  H   4.96856086182590     -0.50985885403800      0.14048325068329
  H   4.37762505389246     -2.09294503954548      0.05928760742999
  H   3.65751414339993      1.25248032589438     -0.48147104971347
  N   1.62123129102292      2.82824655050412     -0.09309803517778
  H   0.72298048186487      3.28307804084044     -0.09656546073053
  H   2.34612047369273      3.28298109652129     -0.61819761832239
