24
Coordinates from ORCA-job ./opt_b97-3c_parallel
  N   4.32325938750271      2.03914232932659     -0.51646634360510
  C   3.59582492154119      1.16620424675104     -0.27137684728775
  C   2.72627816186840      0.10425544893969      0.02302341224475
  C   1.37732106779945      0.13405510340295      0.26737620001909
  C   0.90393546059722     -1.21437607673425      0.39535925026065
  C   2.00672153062246     -2.10817339997598      0.26990657459762
  C   3.11281593861648     -1.31563886220654      0.06874714937860
  H   4.13104747707701     -1.65618311959772     -0.03049956864344
  H   2.01747617085138     -3.18333624572827      0.35825524054069
  C   -0.42062290571184     -0.75182651770910      0.23541960157673
  C   -1.71106449077554     -1.30957609225364     -0.01696674658582
  N   -1.77595537227267     -2.67641712913500     -0.08637274817417
  H   -0.91944248872788     -3.15381498023766     -0.30778070994147
  H   -2.59258564649439     -3.08825488553469     -0.50349345449219
  C   -2.82473414004803     -0.51970235850201     -0.14205115082563
  C   -2.97398909125488      0.90920956197760     -0.02458818704895
  N   -2.09966373376129      1.88385608613473      0.01223226285811
  C   -0.74866418302966      1.76950927548643      0.01732693906807
  C   -0.02856124364346      0.63163099942605      0.16822559870812
  H   -0.21997299442018      2.71123726881428     -0.06922404071178
  N   -4.29574554653461      1.32528709844570     -0.05152269321737
  H   -4.40117913508990      2.30104822743079      0.17384630867173
  H   -4.97644032126621      0.73005810702096      0.38859031806225
  H   -3.75098246424572     -1.04567015334183     -0.35119466045274
