25
Coordinates from ORCA-job ./opt_b97-3c_parallel
  N   -3.06787460197199     -2.47195409142271      0.05528401113805
  C   -2.59191568955338     -1.17591502922106     -0.00669007345391
  C   -1.26830042865920     -0.73710381893777     -0.00113116189131
  C   -1.26814681023842      0.73724324203882      0.00641997553946
  C   -2.59166054260037      1.17632341505961      0.01386504216735
  N   -3.06744358226317      2.47246612848720     -0.04732069776277
  H   -3.97702648875096      2.61200873344940      0.36130263271048
  H   -2.41056918342265      3.16599469786274      0.26926540525242
  C   -3.38804019517718      0.00028529031256      0.00410925189560
  H   -4.47019548342702      0.00039535359500      0.00488396825758
  C   0.13673397130250      0.76218062933502      0.00968179740414
  N   1.09116270817427      1.65900478876817      0.01540389987282
  C   2.36954861714921      1.21208963577975      0.01526180346874
  N   2.93050286940330     -0.00036273837165      0.00157043975662
  C   2.36929278195743     -1.21269845078150     -0.01181159261591
  N   1.09081581744845     -1.65934938496277     -0.01125897698441
  C   0.13657269682020     -0.76232865225759     -0.00524483179050
  N   3.27553569216902     -2.22273588654012     -0.05823538137598
  H   2.94502008992267     -3.15470916812973      0.10903624324780
  H   4.23722509559799     -2.00165349418015      0.11937114168420
  N   3.27601880138169      2.22193185469715      0.06122544214604
  H   2.94562373535909      3.15400715367244     -0.10570935857133
  H   4.23759891791766      2.00066668745163     -0.11673928736189
  H   -3.97808720054907     -2.61134664135371     -0.35198266005439
  H   -2.41161086809003     -3.16564866125072     -0.26219722187888
