25
Coordinates from ORCA-job ./opt_b97-3c_parallel
  N   5.24468880825675      0.66907136181174      0.06490712212205
  C   4.08638025436938      0.56460158610656      0.02506154927939
  C   2.68536267207705      0.36235350217612     -0.01593300292610
  C   2.27504534538751     -1.01329221318110     -0.01765106941004
  C   0.94744963049070     -1.48445863825555     -0.04284091511667
  C   -0.14699918420144     -0.67602089487231     -0.08826944398243
  C   -1.56326023141155     -0.71867863990966     -0.10180221084124
  C   -1.64374491799685      0.73442309476647     -0.10885948538390
  C   -3.01790538477275      1.04395284916921     -0.00793078785238
  N   -3.74329502689450     -0.09804982560032      0.04545628014141
  C   -2.88586057211788     -1.16384879756708     -0.00471464210942
  N   -3.38689676065508     -2.42465884668741      0.10163304788130
  H   -4.37419400854325     -2.50893900825815     -0.07297401302887
  H   -2.82869563707334     -3.17290982775883     -0.26781346709478
  N   -3.62483171544074      2.25336191584925     -0.01642390691196
  H   -3.06678515412847      3.05959372770123      0.19779246948732
  H   -4.58187740442504      2.28087614750139      0.29007353740592
  C   -0.24624675514736      0.84979915773945     -0.09128173356705
  N   0.63417747856125      1.82377969856398     -0.05784971516022
  C   1.93690846413354      1.55638848059233     -0.03081060244298
  H   2.55561876653888      2.44749828255123     -0.01100644148839
  H   0.80659289204845     -2.55991910954755     -0.02783622224226
  N   3.25455611550395     -1.95369777467586     -0.01589881504474
  H   3.01875418842636     -2.91627628846674      0.13212117792660
  H   4.21514117821445     -1.69296865014839      0.12412773865945
