23
Coordinates from ORCA-job ./opt_b97-3c_parallel
  N   -0.79758712760358     -3.30774690382297      0.01635789623672
  C   -0.97280831709336     -2.15751977845238     -0.00686328625075
  C   -1.17782092051507     -0.76227496507033     -0.02677217126621
  C   -0.05589716354296      0.04059459003377     -0.06379123826617
  C   1.34908191228613     -0.08579110640180     -0.08796339084699
  C   1.49970276332543      1.36080709942020     -0.05175900131143
  C   2.86863530015946      1.59953273103657      0.02438460017472
  N   3.54269073401712      0.42268009845963      0.03424671942832
  C   2.64358362111082     -0.61168593276949     -0.02940325512712
  N   3.07519615275409     -1.89328092609315     -0.08228645163467
  H   2.41997634064075     -2.62789391602508      0.11701969109909
  H   4.02996339277968     -2.05868166643077      0.18459399104390
  H   3.41440036553453      2.52855662777653      0.08029036753441
  C   0.08362568614136      1.52391466517933     -0.04215680654401
  C   -0.90607950939029      2.47232357325695     -0.00502400014010
  C   -2.26908520539707      2.15908093606754      0.01015064767865
  N   -2.95126777507052      1.02331790194134      0.00688208597981
  C   -2.51818025541747     -0.24265024442969     -0.00309245188106
  N   -3.52125325485364     -1.14354142952735      0.01391373126602
  H   -3.35908817968232     -2.13420596526030      0.00383991195034
  H   -4.46111848189993     -0.79190742275764      0.03141249433497
  H   -2.92725236795119      3.02442496561030      0.03132157903906
  H   -0.64218509333197      3.52170479975862      0.01328955600269
