23
Coordinates from ORCA-job ./opt_b97-3c_parallel
  N   4.52515087252319      1.65582519611882     -0.01901038428575
  C   3.51735254621475      1.07837862357089     -0.00796336142828
  C   2.27660222404064      0.38526285826055      0.00410612571215
  C   1.10968190037127      1.20383958211541     -0.01673160128882
  C   -0.15626762461897      0.71343595600663     -0.00277660982478
  C   -1.55257286869985      1.19015785253028     -0.00670793996657
  C   -2.02134331086161     -0.17159363572682      0.04421370034314
  C   -3.43736560576728     -0.16461513309494      0.05693402860424
  C   -3.79734498282767      1.17604766916872      0.00922543682881
  C   -2.62746198661262      2.03429799758200     -0.03250939083739
  H   -2.65516941224049      3.11244912581098     -0.07382273539066
  H   -4.81320874448702      1.54175600783075      0.00660674607878
  H   -4.12239576172506     -0.99675956618764      0.10283383871233
  C   -0.68926279204087     -0.63682655929460      0.04229467204149
  C   -0.01723721543020     -1.88820271302380      0.03948341366966
  N   -0.81301669315086     -3.00659921433430      0.09934704501267
  H   -1.76198398484912     -2.89585743506281     -0.21413657651507
  H   -0.40076726307087     -3.88572323185258     -0.16107896628355
  C   1.36279595889981     -1.98751716526536      0.03620151632589
  C   2.36040777439599     -0.99865274938050      0.03067850064909
  H   3.36806728878405     -1.39098676021187      0.03723157270638
  H   1.74993623551534     -3.00127715705234      0.04339769996467
  H   1.25361465883743      2.27441294579251     -0.04449707442844
