25
Coordinates from ORCA-job ./opt_b97-3c_parallel
  N   4.05847446233839      1.51368095238850      0.11666448685047
  C   3.33405823955480      0.60819388742209      0.00938213148638
  C   2.38070909530361     -0.41203123056773     -0.10762669911636
  C   1.03866891031935     -0.24267795314323     -0.50218746837618
  C   0.37459682134275     -1.49355456882053     -0.39168611958611
  C   1.28688706220543     -2.44608010925584      0.06902760750706
  C   2.53310812634199     -1.79339702033391      0.18754825988648
  H   3.47189476640577     -2.26702844584602      0.42809057011179
  H   1.11744957456080     -3.48740651689248      0.29968378978624
  C   -0.91391310373938     -0.77102966651055     -0.23411500664741
  C   -2.25155394222678     -1.08469618297138     -0.02204365626005
  C   -3.23332643733413     -0.08929172590219      0.09360952563460
  C   -3.09267954308772      1.28965817439968      0.11157710385104
  C   -1.97738014414985      2.11996331510962      0.03431399273051
  C   -0.62968466655693      1.78732716169435     -0.12267237719112
  C   -0.22375018677847      0.45884638872999     -0.31400804126596
  N   0.33581820298694      2.75845479962717     -0.16510771765840
  H   1.29711699752013      2.47475151136043     -0.07583171862773
  H   0.13064003440050      3.65118245125613      0.24645398777469
  H   -2.19033848056799      3.18117445532262      0.10679456569221
  H   -4.02836802536092      1.82494494707946      0.21477740604114
  H   -4.25096789589123     -0.44865028537431      0.20486934137851
  N   -2.58811763414684     -2.41697325516127      0.12328736554474
  H   -1.95135542568563     -3.06642182632003     -0.30911428454856
  H   -3.55238447005444     -2.65264541649067     -0.03914740439793
