23
Coordinates from ORCA-job ./opt_b97-3c_parallel
  N   -5.65682740725675     -0.48163986197595      0.00159379509315
  C   -4.49594069819483     -0.42353881500034      0.00112664954926
  C   -3.09120606952764     -0.36573106008219      0.00057677164145
  C   -2.24206422608075     -1.53024390704544     -0.00022640975587
  C   -0.96346910327626     -1.03124644831083     -0.00055200100324
  C   -1.01253343837564      0.41881571548766      0.00006596833065
  C   -2.33479624432146      0.83657536990881      0.00077615215665
  H   -2.74757310471478      1.83102169940603      0.00135865637273
  C   0.40698610560539      0.47610143355513     -0.00027298164584
  C   1.44515762052583      1.40159183941349     -0.00010363528293
  C   1.13970400067507      2.78338761715153      0.00058481987985
  N   0.87889273921205      3.91501324484871      0.00109181556180
  C   2.80678864511169      1.02015960133161     -0.00060635031404
  N   3.42367579433824     -0.13820489224216     -0.00127421403985
  C   2.89547131795836     -1.38594337849992     -0.00167158300892
  C   1.55146617902488     -1.83262815812886     -0.00150679742562
  C   0.48126615816883     -0.98852388303923     -0.00090932011674
  H   1.37211828016466     -2.90043134989445     -0.00188471642395
  N   3.85511804750244     -2.32684540593861     -0.00232755124859
  H   3.64767303679270     -3.30797266356146     -0.00269852826324
  H   4.81309945509648     -2.02370412932606     -0.00244668745356
  H   3.49652258916363      1.86007116564855     -0.00040416589327
  H   -2.60095271429209     -2.54616703190607     -0.00048297450984
