25
Coordinates from ORCA-job ./opt_b97-3c_parallel
  N   3.22582656290174      3.35879036021728     -0.03367561923993
  C   2.42175532760635      2.51756446514668      0.00227194540554
  C   1.48247510805541      1.46496858241992      0.03487398305042
  C   0.10848983985793      1.88070730088274      0.04383471857351
  C   -0.94628015132873      1.06326932309120      0.18036418313384
  C   -2.45469340955606      1.07072377724713      0.20488328155241
  C   -2.43037199308930     -0.35007186203285      0.40855763084146
  N   -3.64022106584573     -0.96397240235639      0.24683181478240
  C   -4.42343284682409      0.06512341256443     -0.06344591234769
  C   -3.73195049502389      1.36167811454575     -0.15390003547897
  H   -4.18342639877362      2.28547166952604     -0.48028687902141
  H   -5.47977554179998     -0.08464684468560     -0.24192409760237
  C   -1.03700997762471     -0.37489113942813      0.29493596165418
  C   -0.04774068867468     -1.38359400196943      0.09334765905150
  N   -0.52515493341790     -2.63927985207629      0.02103491600960
  H   0.07498226172148     -3.43195719514356     -0.12665683271364
  H   -1.51722484317472     -2.79517468288038      0.06409695620010
  C   1.31695137687843     -1.09749497599630     -0.00948143891821
  C   2.12266851391072     -2.24400121439199     -0.18257433170959
  N   2.74230693068726     -3.21823803383954     -0.32839074691397
  C   2.02714686233168      0.17272093436198      0.04979689633014
  N   3.38420747452916      0.05236346906709      0.13298749373385
  H   3.82526692999071     -0.81925163483286     -0.10026132946938
  H   3.94800646865872      0.87385877363570     -0.00409996442566
  H   -0.06448647799618      2.94218783752736     -0.06266197207815
