28
Coordinates from ORCA-job ./opt_b97-3c_parallel
  N   -4.39472710412099     -1.99368176854467      0.01301937316368
  C   -3.42703216876877     -1.34086762450096      0.00880557026748
  C   -2.27996390983042     -0.53031998619314      0.00347252406012
  C   -0.99784261347802     -1.23865979964277     -0.00914393630176
  C   0.17938728931175     -0.60393303597204     -0.12251946743752
  C   1.64973459983279     -0.91581089955573     -0.14085283493808
  C   1.92493716062628      0.49659021443753     -0.28334945446350
  N   3.25171924275858      0.81772541082076     -0.22310016413973
  C   3.81064080458140     -0.37646929711275     -0.04280610496127
  C   2.84529582944090     -1.51199833185976      0.04567533079606
  H   3.11462120905173     -2.53601127617440      0.25837624616154
  N   5.14735016356954     -0.53267563773631      0.11877166216744
  H   5.54558307891893     -1.43815237302605     -0.05217686960129
  H   5.72200419027198      0.25200673949194     -0.13734994561015
  C   0.57346231221461      0.80380869990444     -0.21148898816432
  C   -0.22274761045868      1.98269368494092     -0.08854193277074
  N   0.46643578550266      3.16085489586588     -0.13042606521740
  H   1.45844983045849      3.12143090803421      0.02927204424177
  H   0.01357963491757      4.00255504501896      0.17739107956759
  C   -1.58652726626879      1.94379896801763      0.01838208348340
  C   -2.51486406909245      0.84611805453432     -0.00443503447608
  N   -3.82252171755977      1.27518383810509     -0.07522159763200
  H   -4.02236118765352      2.19420623673806      0.27552498387939
  H   -4.54682598954680      0.60033140567918      0.10847120075436
  H   -2.06766749023295      2.91472621666160      0.07551853351189
  N   -1.05115903354122     -2.62037613665438      0.19989591835593
  H   -1.87189914966644     -3.06889178415210     -0.17883250823902
  H   -0.21645254403843     -3.09306457842544     -0.10805609685776
