26
Coordinates from ORCA-job ./opt_b97-3c_parallel
  N   -5.46283251070744     -0.09020583743080      0.01556391932912
  C   -4.29912478404538     -0.14245608186493      0.02278749334976
  C   -2.90091003494782     -0.11161501054148      0.02145962020457
  C   -2.16112402774683      1.13712110084316     -0.00537321219373
  C   -0.82486055125267      0.75877054907361     -0.02283150127454
  C   -0.74870466325992     -0.69196781370700     -0.01078939601192
  C   -2.02274196404653     -1.22873909720748      0.01987487088887
  H   -2.33737936331707     -2.25899900963831      0.03389340200371
  C   0.66969195172197     -0.63009588479607     -0.01733934690225
  C   1.77311610247198     -1.46852584924971     -0.01011378897397
  C   1.55763620946635     -2.86771120182822      0.00497864050977
  N   1.36764352076175     -4.01377647364677      0.01677500105833
  C   3.10308192289273     -0.99167339684739     -0.01856663244810
  C   3.60782476513651      0.28509090897690     -0.02369582816451
  C   2.96395042627212      1.55052472642218     -0.02488570211310
  C   1.58005608489295      1.80944718081707     -0.02734689281314
  C   0.60298707191862      0.85093874606206     -0.02840535935255
  H   1.27131525669750      2.84855173895763     -0.02855901472588
  N   3.78799844840747      2.63340580160409     -0.05807731041973
  H   3.41533509606650      3.54843545934231      0.11560140639510
  H   4.76884387043530      2.51887826466852      0.11878260018959
  H   4.69018569861216      0.33763850767184     -0.03267074793078
  H   3.85457248574068     -1.77102718434311     -0.01393722569022
  N   -2.74281057591720      2.36954472706628      0.05249848922357
  H   -3.72591676477654      2.41469630623725     -0.16164823514576
  H   -2.21364411407720      3.14393019895832     -0.30617887459226
