28
Coordinates from ORCA-job ./opt_b97-3c_parallel
  N   0.89638872159556      3.90938163241928     -0.05319230133752
  C   1.35177579376508      2.83996418496470     -0.01128061423095
  C   1.78614161599848      1.49453657066838      0.03357257739985
  C   0.78354699848272      0.53714487037276      0.08039482605809
  C   -0.61380149326440      0.45683841591604      0.09890860574189
  C   -0.56120798466302     -0.99878430971370      0.09603020166685
  C   -1.86098327726340     -1.48781304920160      0.02537212058006
  C   -2.71936798981459     -0.32402694225514     -0.01114005521540
  C   -4.10954430197905     -0.37771097569193     -0.06577491379463
  N   -5.27421218502029     -0.43349032092460     -0.11107950997683
  C   -1.94340615133052      0.88367440486752      0.02820898764488
  N   -2.43498082915181      2.13913502386673      0.05242588331175
  H   -1.80199018986308      2.90920420195703     -0.07738405159385
  H   -3.39703351486051      2.29863862812948     -0.18911559608356
  N   -2.32119508604176     -2.76571831626197     -0.07557479551718
  H   -3.29994928707035     -2.91455155625692      0.10719747552818
  H   -1.72474734503494     -3.49623775954883      0.26885848635070
  C   0.86448009565924     -0.95832544088362      0.08458010478235
  C   1.94704127773763     -1.79167673053908      0.05624685226841
  C   3.29264168768225     -1.37103441324735      0.03299681046533
  N   4.24019562450025     -2.36591183297950      0.06476239082251
  H   5.17693192993908     -2.13201518783907     -0.21189864545992
  H   3.95611420825222     -3.29395594457913     -0.19304131276023
  C   3.79035135585613     -0.04609153040958      0.02257144878921
  C   3.15782756113737      1.17772029709922      0.01798163783949
  H   3.82178823294877      2.03210504917698     -0.01036018888600
  H   4.87262851849477      0.01703643720958      0.01450055038992
  H   1.76597489420853     -2.86110608091589      0.05448268431649
