22
Coordinates from ORCA-job ./opt_b97-3c_parallel
  N   4.53603912854542      1.05883210189416      0.03392841390421
  C   3.48215324276125      0.56918187363796     -0.00200072877443
  C   2.16774751820739      0.04623849758685     -0.03746611731420
  C   2.06634291539760     -1.33856902274460     -0.05379775961080
  N   1.03790587083428     -2.19203603447490      0.04563189578453
  C   -0.23960342626566     -1.91157334047459     -0.06142036970352
  C   -0.76934367548065     -0.64596074244956     -0.51498490152883
  C   -2.06993528117389     -0.15619631846049     -0.80596209471226
  C   -1.59679271785156      1.13591101081863     -0.40743440324224
  N   -2.51550117116535      1.75338988040842      0.30289760362939
  C   -3.59430142324166      0.86632485705949      0.18993741695360
  N   -3.36440170332061     -0.31283399622724     -0.38108268576211
  H   -4.56649138259730      1.14331683011790      0.57119430676852
  C   -0.17450791792748      0.62154741124158     -0.32565156968440
  C   1.09948481178513      1.02250031352960     -0.03846042186529
  N   1.36747171044555      2.31846683498996      0.28477243667375
  H   2.32123352964993      2.63627516611655      0.28010611220343
  H   0.67200506294157      3.01045656498088      0.06811653480075
  N   -1.14483887615449     -2.85850735016483      0.22385398713325
  H   -2.12946145568677     -2.66247054507167      0.15820896098059
  H   -0.83635086489769     -3.74774513563280      0.57610989887282
  H   3.02120271699578     -1.85023958108284     -0.09113057930752
