21
Coordinates from ORCA-job ./opt_b97-3c_parallel
  N   3.14539672216753      1.71122944818090      0.10380089721883
  C   2.44193796962225      0.53901139011447      0.03084260813536
  C   1.05209452251761      0.34437637710807      0.02243565248261
  C   0.79282489392506     -1.07973601023823      0.00346004921644
  C   2.01195668586826     -1.75838448380602      0.00761707225672
  C   3.01297575609902     -0.77200973616252      0.02560115111403
  H   4.07551907007005     -0.96800019071351      0.03727564202475
  H   2.19084881610772     -2.82238852846348     -0.00361391557290
  C   -0.60773772942340     -0.83979821435844     -0.00595733149333
  N   -1.69636820714115     -1.58145196131511     -0.02723349106370
  C   -2.90806777401667     -1.01455999751916     -0.02795352938183
  C   -3.33281052796412      0.31678212905148     -0.00787540614031
  C   -2.60051044285486      1.50410382605480      0.01784049251365
  C   -1.22130037965613      1.69576347683145      0.02964198570345
  C   -0.33493715142618      0.63874144767342      0.01630441916799
  H   -0.84373047358395      2.71051577806910      0.05314325327102
  H   -3.19779228987016      2.40957822906779      0.03045357388108
  H   -4.40940487989716      0.43494797926542     -0.01342890176907
  H   -3.71325576383479     -1.74423671560020     -0.04724861305424
  H   2.66766183024292      2.54271212994543     -0.19631948247080
  H   4.10766915944815      1.68032062031435     -0.18655030023976
