25
Coordinates from ORCA-job ./opt_b97-3c_parallel
  N   5.48688702007309     -0.03957236752253      0.06009623464867
  C   4.34611506452115      0.19201948829679      0.02910955493468
  C   2.96181610389006      0.39229792681136     -0.00229784637445
  C   2.02230702615820     -0.71227242150199     -0.03042931504230
  C   0.77321473028054     -0.10138093934488     -0.03936100256248
  C   0.94191470630144      1.34732382611592     -0.01867427369558
  C   2.28926075633484      1.64855087579534      0.00562487599611
  H   2.78864094657829      2.60322381673868      0.03344373930542
  C   -0.47382538822857      1.52064684262376     -0.01382467960021
  C   -1.45363826873673      2.48372525762117      0.00088461790490
  C   -2.81840261766280      2.18682747682227      0.00534017049183
  N   -3.51545002598198      1.05821503129367      0.00504348246138
  C   -3.09593076424041     -0.21180613814074      0.00376180371604
  C   -1.76006493550868     -0.74702111326590     -0.00801700236694
  C   -1.56339607872275     -2.14220054299749      0.00800711347984
  N   -1.38431668310548     -3.29220661304754      0.02777492215281
  C   -0.63088250712724      0.04736498158565     -0.02656136645788
  N   -4.10597542005773     -1.10171504575343      0.01591000589889
  H   -5.04305520912008     -0.74144379587605      0.02265904637345
  H   -3.95343278723125     -2.09421289337880      0.01244250034916
  H   -3.46671195205486      3.05955304825984      0.01171365655201
  H   -1.17672717326845      3.52952374680598      0.00828796913726
  N   2.35915313672137     -2.02028965027555     -0.09830557216022
  H   3.30409110977350     -2.28906492394127      0.11491519803731
  H   1.65165952141449     -2.71037593142425      0.08155510352037
