29
Coordinates from ORCA-job ./opt_b97-3c_parallel
  N   -4.30877330392821     -2.56284415527588      0.20903584658434
  C   -3.47272106616654     -1.75086821412015      0.17718322219448
  C   -2.49861783993225     -0.73820015728505      0.10773779842254
  C   -2.98502669512360      0.55840387033611     -0.09118461171719
  N   -4.33836780087101      0.71704802787437     -0.29446004501452
  H   -4.74043967384659      1.59600003503923     -0.02205568357695
  H   -4.93297506374697     -0.07498932068990     -0.11312360014795
  C   -2.27210302755537      1.79850315854680     -0.18791880674589
  C   -0.96395308947104      2.11447402530230      0.06966265976750
  C   -0.00132090122992      1.12774533279200      0.44108593819285
  C   1.38625883330645      1.11814036762864      0.66413279925599
  C   1.40859478845751     -0.29674385004613      0.46834102262546
  C   2.68343470567769     -0.59678492141156      0.07828727553534
  C   3.25584687872726     -1.79217202081662     -0.36715599834162
  N   3.77099086402889     -2.76788103575452     -0.73784626538722
  C   3.39255376727682      0.71993721499891      0.15574085184522
  N   2.59381514498832      1.73341241931629      0.46176856074995
  N   4.70715089600211      0.85564186088617     -0.12515927495004
  H   5.14896888885382      1.71888162469947      0.13670255932895
  H   5.28839119556967      0.03692510602484     -0.13411946807218
  C   -0.09685611620214     -0.30940830131999      0.36377629024429
  C   -1.11267962739019     -1.18001381472017      0.19682224658057
  N   -0.89075895736341     -2.54863455464595      0.20509158948453
  H   -1.51746819309430     -3.10122819854789     -0.35759681691511
  H   0.06947650646948     -2.82095633388800      0.07683118908479
  N   -0.49496683661907      3.39308840700792      0.00607586112505
  H   0.50165491647363      3.52278721275244     -0.03764308987909
  H   -1.04467056980877      4.09716480318713     -0.45262052841984
  H   -2.89587139958225      2.62947644512910     -0.49993752615416
