22
Coordinates from ORCA-job ./opt_b97-3c_parallel
  N   -3.05090723247449     -2.10100861122793     -0.06337721087275
  C   -2.58221667361520     -0.80755576494282     -0.00667530737833
  C   -1.27290300445324     -0.34129385826626     -0.02452790970030
  C   -1.29544173770110      1.11767233154451     -0.02475038883048
  C   -2.62407658585125      1.54238587151712     -0.01325145617585
  C   -3.39960826964653      0.37211734245642     -0.00470913061542
  H   -4.48089243413224      0.35101768623653     -0.00242250429134
  H   -3.01631504043473      2.54743132952843     -0.00668000076019
  C   0.11523506784186      1.17555241325766     -0.01510409754021
  C   1.18799693430236      2.04408251129358      0.00412217526166
  C   2.49969683247642      1.58327606550203      0.01930627242348
  N   3.03638560983313      0.36466705237423      0.01618904452728
  C   2.40704550382629     -0.81974727479699      0.00498704848251
  N   1.10202655641052     -1.21524897350517      0.00038493638287
  C   0.15136094006876     -0.32315263465125     -0.01222362546408
  N   3.25495512805794     -1.86841852756479      0.00538450576004
  H   4.24226960113856     -1.69676057719853     -0.02259090053056
  H   2.88893859540917     -2.80038675899983     -0.04028633715291
  H   3.25899986938188      2.36242447042582      0.03609982421474
  H   1.02888240893484      3.11479210308648      0.00923218089397
  H   -2.39552174121232     -2.80461340271172      0.23174456067900
  H   -3.96873436876062     -2.24984378075755      0.32139287548689
