22
Coordinates from ORCA-job ./opt_b97-3c_parallel
  N   2.73033311647512      2.49046928357349      0.03470212679518
  C   1.99924586793897      1.35715372812040      0.01017807706615
  N   2.73906753736007      0.24496703259950      0.00589841870969
  C   2.36726500572521     -1.03535677002341      0.00162165110224
  N   1.16143932137884     -1.67132222268123     -0.00419993279946
  C   0.09121718795609     -0.93318517060936     -0.01291664706922
  C   -1.31752895085185     -1.11978563837995     -0.01542238647961
  C   -1.52985922269355      0.33017669357862     -0.02544313683802
  C   -2.91812677862040      0.50734238121735     -0.00411485266040
  N   -3.66320642805380      1.65453480868671     -0.06352016723552
  H   -3.22539302163916      2.48315329826351      0.29955139826040
  H   -4.61947525279925      1.53744120670543      0.22895555115003
  N   -3.52647933241023     -0.71078004806214      0.01495058596533
  C   -2.57824274602227     -1.68993244480414      0.00595153988316
  H   -2.87625293302114     -2.72611349410081      0.02373874335546
  C   -0.13928493986547      0.57200327869225     -0.01275849334607
  N   0.66240188490007      1.60108923499366      0.00231674252503
  N   3.39880794157014     -1.90227008245276      0.00147987455732
  H   3.21051501787854     -2.88678898203984      0.00566847526119
  H   4.33927516029607     -1.55669646983811      0.01541441180330
  H   2.26144852884535      3.37390179844446     -0.03178130940884
  H   3.72902705895266      2.43480552691639     -0.02597387029734
