20
Coordinates from ORCA-job ./opt_b97-3c_parallel
  N   -3.87413481628395     -2.00620589497850     -0.00096360376616
  C   -3.16039712577490     -1.08848536640473      0.00009090757291
  C   -2.28332546609229      0.00582569919758      0.00089833091627
  C   -0.87378351445893     -0.00030508366102      0.00082458083894
  C   -0.41241389429719      1.34758716529545      0.00143813850281
  C   -1.50176618557085      2.20819509806127      0.00196550057409
  C   -2.65053652676727      1.37754813929782      0.00163366377942
  H   -3.67052743660718      1.72665375255258      0.00186573603243
  H   -1.51981264105429      3.28658789858356      0.00256279037855
  C   0.96777138942353      0.87666037213907      0.00098137472988
  C   2.26013153242308      1.36010709542880      0.00076076777338
  N   3.39013749518289      0.63869623531735      0.00020158803917
  C   3.51292613168900     -0.67452653049106     -0.00022512915017
  C   2.56142353623346     -1.72528329092585     -0.00030246430069
  C   1.18413135455610     -1.68527293819170     -0.00001408606773
  C   0.46699773412706     -0.48873964937527      0.00045273818796
  H   0.63583013777665     -2.61784861296378     -0.00019187644982
  H   3.00613896132053     -2.71443409978550     -0.00067949885358
  H   4.54547005005699     -1.00970366368881     -0.00059582946941
  H   2.40506566991754      2.43442883509273      0.00107207613173
