20
Coordinates from ORCA-job ./opt_b97-3c_parallel
  N   -4.32995086630518     -1.64335903177362     -0.00155825581800
  C   -3.35315887677620     -1.01773066816796     -0.00118328817892
  C   -2.15724607915375     -0.23930519947768     -0.00057489182415
  C   -2.36713240880251      1.16174230542857      0.00007225485705
  C   -1.43972670209557      2.18775125592088      0.00123285853383
  C   -0.03999744173752      2.16449360050050      0.00179298212164
  C   0.70728205512191      1.00894671270148      0.00080724015764
  C   2.10130558698304      0.58424622698787      0.00116859906453
  C   1.67431458826436     -0.77271442094528     -0.00023035257668
  N   2.67387772222936     -1.66998012037730      0.00142884816882
  C   3.76713610470362     -0.86393363650241      0.00383287519682
  C   3.48394892857077      0.54186491898111      0.00403916308244
  H   4.21664878128244      1.33271583171423      0.00606938274872
  H   4.75512800690059     -1.30154747176483      0.00547462264890
  C   0.29516674843859     -0.39022393167566     -0.00043406961875
  C   -0.97198208309283     -0.96768854102817     -0.00065647971794
  H   -1.03953867901042     -2.04604091461680     -0.00098395831460
  H   0.47984622043580      3.11252486656060      0.00303557444686
  H   -1.87752282332411      3.17951655391139      0.00185180513936
  H   -3.40407845143237      1.46455916782310     -0.00012798131757
