27
Coordinates from ORCA-job ./opt_b97-3c_parallel
  N   0.79845594450154      3.74821068363872      0.08233327332681
  C   1.00574518919544      2.60338437472695      0.03190378814643
  C   1.22775141089583      1.21388456889230     -0.03348562703026
  C   0.12453188493961      0.39308287701524     -0.14409008833503
  C   -1.27011006928206      0.46117984317873     -0.19212354178089
  C   -1.38996809825990     -1.00015080469867     -0.18411452985836
  C   -2.75508117620190     -1.25869012187062     -0.02541937605200
  N   -3.44802120804896     -0.08454379704356      0.04596814636038
  C   -2.57413908088438      0.95362658532123     -0.03984693275239
  N   -3.01615544325735      2.23858614367632     -0.04011103970551
  H   -2.34216594534978      2.95519801658910      0.16593708420764
  H   -3.93572055788709      2.38745956608370      0.33830979547257
  N   -3.41272771999738     -2.44349776157468      0.12437497094852
  H   -2.96421608046938     -3.25600286212536     -0.25946481996989
  H   -4.40607675717001     -2.40040621753932     -0.02940227137218
  C   0.01768345108218     -1.12938525697500     -0.15256113121355
  N   0.88188813907754     -2.10056558662487     -0.09370512022093
  C   2.20949216001507     -1.84865212175105     -0.05067276122221
  N   2.94527801255080     -3.00608829406567     -0.08068498160524
  H   2.42014888394272     -3.84118116842974      0.11124138379893
  H   3.88889877335640     -2.99386808559074      0.26132236294160
  C   2.93621280604739     -0.64636250282944     -0.01509258960158
  C   2.56033026679320      0.69759756659879      0.01595469861594
  N   3.56097316236060      1.62105188951466      0.15004431766961
  H   3.35651410971001      2.58431293180039     -0.05306413660253
  H   4.50153477773310      1.33543065305818     -0.05107945730118
  H   4.01059872010671     -0.79459327607569      0.01319060633534
