25
Coordinates from ORCA-job ./opt_b97-3c_parallel
  N   -5.01853108686119     -1.61130730012820      0.67123341987764
  C   -4.20378059787645     -0.83797830743579      0.37310105990485
  C   -3.22863282649689      0.10606795442441      0.01558430112662
  C   -1.90893279768755     -0.09067041139819     -0.28840802895313
  C   -1.27860008169798      1.19292519700520     -0.44186272400720
  C   -2.26092631444639      2.21675632924896     -0.28084583962538
  C   -3.44343943785037      1.56678252566060     -0.03089908884865
  H   -4.40826882044588      2.02804735709082      0.10596986837071
  H   -2.14566568665243      3.28458085023544     -0.38145272961894
  C   -0.02089564986074      0.57299187056390     -0.29915496618581
  C   1.32128363184409      0.99376896223851     -0.04503856394022
  N   1.51534940877805      2.32384319228957      0.06607417576326
  H   2.40823419636075      2.69988526215411      0.33542199682263
  H   0.71823574523489      2.92750914217403      0.14479193063685
  C   2.37034083230386      0.08151959517108      0.06271533237854
  C   3.62798893553515      0.66068673232922      0.32605244166826
  N   4.64941789734063      1.17546730406684      0.54395067056777
  C   2.34046043058086     -1.38125687369994     -0.09539786964570
  N   1.34349581884253     -2.22488439434308     -0.07810244933775
  C   0.01568796665655     -1.96167856882536     -0.05894413036647
  C   -0.57203228670664     -0.75379186580145     -0.21536186499539
  H   -0.61114958792571     -2.83653490841214      0.06383031415339
  N   3.56854541099304     -1.95516786382189     -0.27839715653995
  H   4.41006550260965     -1.46045322794285     -0.04166083096099
  H   3.58655448392818     -2.95371589984383     -0.16567304504496
