26
Coordinates from ORCA-job ./opt_b97-3c_parallel
  N   -3.88714652113580     -2.53985227291323      0.76888359926712
  C   -3.49913342345709     -1.51469166250304      0.37840883947655
  C   -2.97265817156360     -0.30110675719782     -0.08506001705270
  C   -1.75135694879412     -0.09618272795941     -0.71953250169580
  C   -1.62236998511795      1.31256706230649     -0.79670457033158
  N   -2.69417872644125      1.99354520436103     -0.29784392205845
  C   -3.53932952610061      1.02503597655228      0.06528455797991
  H   -4.54181349065674      1.24235194413485      0.40451981023732
  C   -0.19965852445026      1.19288713634329     -0.52647231353989
  C   0.84250209115932      2.04269700679595     -0.04330791210657
  N   2.10001053026562      1.69548289292715      0.10356607320334
  C   2.66240913125175      0.48366823464030     -0.02603099328521
  N   4.01797951790999      0.55631184998648     -0.08648184600748
  H   4.43006186935960      1.43263247320596      0.17711074202823
  H   4.58395740622319     -0.26925355011354     -0.00214202136749
  C   2.07590658556508     -0.81653731129760     -0.04971276938851
  C   2.95843059901561     -1.89988664274574      0.10579009783561
  N   3.68141449318706     -2.80297377987003      0.24434181896076
  C   0.69864415950976     -1.15623652287409     -0.21887197267401
  C   -0.25089199306047     -0.19330249173307     -0.51724159344383
  N   0.30035662060811     -2.44731561459662     -0.12545053155827
  H   -0.68097122724056     -2.66042097621312     -0.12969397631974
  H   0.91796709156073     -3.15379183267167      0.23280056917341
  N   0.48365828565761      3.30403738504540      0.25380103490317
  H   -0.48577637417243      3.57129587183539      0.22791547277011
  H   1.15525216831733      3.92622262355436      0.66680572379402
