22
Coordinates from ORCA-job ./opt_b97-3c_parallel
  N   3.89284982242155      2.43606903435908      0.20213653750144
  C   3.11350139487663      1.58025125425073      0.08469131295481
  C   2.25561165508279      0.48567167944254     -0.05862820343833
  C   0.90827917647046      0.35627051912941     -0.12712793052150
  C   0.64807670335280     -1.07647192232011     -0.21060652780406
  N   1.76505284868850     -1.85126918049733     -0.21631479814899
  C   2.73682108386046     -0.95035537074681     -0.13819919173669
  N   4.03361128136175     -1.25524089165776     -0.11790749045125
  H   4.31861992107833     -2.21786305508422     -0.14038048449924
  H   4.73340555318830     -0.54208557508726     -0.02169201230584
  C   -0.71975750901192     -0.86667683088527     -0.11860493330307
  C   -1.92116295555230     -1.58622117958504      0.15701980809286
  N   -3.09898057089252     -1.08952630061336      0.28515774360386
  C   -3.44774432087669      0.28282109104132      0.04206851859255
  N   -4.78255692620204      0.30920030352584     -0.21490315203264
  H   -5.21976027128892      1.20945451300492     -0.30000991842124
  H   -5.33513301967527     -0.47763473786682      0.07139233296209
  N   -2.81727113485361      1.40975283055084      0.04640160138000
  C   -1.44820119925336      1.58835467679369      0.06632623382034
  C   -0.54296545518866      0.61433102638343     -0.06053714355002
  H   -1.13305234125047      2.62101652785132      0.14358377995949
  H   -1.83544355323585     -2.65663173178910      0.33864680234542
