21
Coordinates from ORCA-job ./opt_b97-3c_parallel
  N   5.37337184530299      0.20906031642809     -0.00056254009854
  C   4.21888171581765      0.07696080249637     -0.00074308557759
  C   2.82277974317956     -0.08922826679848     -0.00048105223268
  C   2.16436206852162     -1.36676371187216     -0.00039960470776
  C   0.81930580735752     -1.07557803010677     -0.00003460940839
  C   0.64146205674756      0.36458543345048      0.00010278621458
  C   1.88401312066101      0.97994465514348     -0.00016304113572
  H   2.13568406214662      2.02706987930184     -0.00014397126975
  C   -0.76774443463087      0.21404743286863      0.00049771129111
  C   -1.93488661546225      0.98899136362894      0.00092971471726
  C   -1.81577507993742      2.39910625777569      0.00105944358280
  N   -1.69189780317982      3.55371136986702      0.00139020172986
  C   -3.20151674343949      0.39735649961064      0.00126779345485
  C   -3.54669662703037     -0.95236505205072      0.00128412284172
  C   -2.75038706920473     -2.09821869471542      0.00098614565708
  N   -1.42375343578485     -2.28481112913903      0.00057694685599
  C   -0.60976049819215     -1.25349839763223      0.00037593177560
  H   -3.30421859788460     -3.03217429449618      0.00109691597799
  H   -4.60971471731948     -1.15311938826707      0.00158986362287
  H   -4.03370314170903      1.09038598277581      0.00156587168966
  H   2.66986861124052     -2.31799674616892     -0.00057674738095
