27
Coordinates from ORCA-job ./opt_b97-3c_parallel
  N   -5.11569593079275     -1.17708936887967     -0.01956773758130
  C   -3.96110681616698     -1.03285003755703     -0.00869149604573
  C   -2.56681599073569     -0.78509386040747      0.00322995339753
  C   -2.21250989555707      0.60704539840649      0.00317527660674
  N   -3.21481185287154      1.50692898329542     -0.02122065254411
  H   -4.17552901170761      1.21310645266358     -0.04058441733328
  H   -3.02233250980814      2.49239530118877     -0.01730175321601
  C   -0.88487818435157      1.11209967732555      0.02458138443928
  C   -0.65918814768541      2.50274336616929     -0.00419924492997
  N   -0.42892363411564      3.64360115856912     -0.03301582931334
  C   0.23635590085150      0.29916490234976      0.05703376825843
  C   1.62541084919470      0.40610900662794      0.07162989039855
  C   1.77397113524087     -1.05367031301481      0.04404426573617
  C   3.14454524203996     -1.35378247903754     -0.01057993373300
  C   3.81504492274667     -0.10309527389634     -0.01364891284290
  C   2.89820016863881      0.98603194376451      0.03086828640952
  N   3.22004007821337      2.30665422682649      0.09568589212247
  H   2.48484243787797      2.96945999408065     -0.08255368091344
  H   4.12706311028225      2.59107247810182     -0.22874905784514
  H   4.88943938361420      0.00936344847214     -0.05033582539452
  N   3.73141390213636     -2.58109072980948     -0.11801427620244
  H   4.69722979396549     -2.65971517226772      0.14840376429229
  H   3.17021508418902     -3.37084493294862      0.14815609838997
  C   0.38077090134369     -1.21111732223932      0.03809056173586
  N   -0.47858130300227     -2.20739481554250      0.01192227379288
  C   -1.78402660344790     -1.96012843734449      0.00517696828709
  H   -2.38633029229237     -2.86271541729644     -0.00262381937169
