25
Coordinates from ORCA-job ./opt_b97-3c_parallel
  N   -1.06535081873439     -3.96441530740769     -0.01075466874642
  C   -1.17171598218671     -2.80680878920625     -0.00101045845892
  C   -1.28128630169416     -1.39647450901735      0.01120412360323
  C   -0.11005690588150     -0.64213093238054      0.00667343166576
  C   1.29162907244604     -0.80949385468722     -0.00808527914057
  C   1.48247023826771      0.63001514765472      0.00693127052225
  C   2.84887590871648      0.89312137343536      0.00060946044149
  N   3.51369753353127      2.09930211868872     -0.05030165470179
  H   4.46673152093019      2.08016140870876      0.27284046345204
  H   3.00861313206202      2.88603352309468      0.32034399825781
  C   3.48256519696594     -0.39616693287527     -0.03036646909592
  C   2.53916440734261     -1.43414619226156     -0.03427943027457
  H   2.76671056847532     -2.48808222359581     -0.05027308653179
  H   4.55416459083834     -0.53641291922607     -0.05053617155936
  C   0.06547431676198      0.83118324395745      0.02009092481080
  C   -0.83741348455401      1.85980266496202      0.02701365435720
  C   -2.23787511041918      1.70312890321503      0.03054525143200
  C   -2.97560006107443      0.49479510200985      0.03186747817599
  C   -2.56616302546775     -0.82001157644374      0.02677718015773
  H   -3.37566718802518     -1.53942193917252      0.02695390167417
  H   -4.05101919599020      0.62855097957796      0.04729003862217
  N   -2.97671395816954      2.85180010818313      0.07575026413490
  H   -2.53143169873446      3.72259929131022     -0.14939909466578
  H   -3.95634552182638      2.80570647528612     -0.13810459092601
  H   -0.45280198678000      2.87350908949002      0.03127048289362
