23
Coordinates from ORCA-job ./opt_b97-3c_parallel
  N   -4.10182252634397     -2.10440341364074     -0.21793598596691
  C   -3.11120129333986     -1.49752679639446     -0.13503666034252
  C   -1.94342873324987     -0.71591993057300     -0.03385799236243
  C   -2.13861504158634      0.67693213671474      0.08043075209767
  N   -1.23965166711747      1.68391674876440     -0.04929391044057
  C   0.05916897705284      1.67041273293442      0.02000729877326
  C   0.87771887571607      0.53022898483439      0.38253332812757
  C   2.24101551451240      0.28959695223814      0.60808642352338
  C   1.97707553360296     -1.09594945517071      0.25324202378211
  N   2.98642513268923     -1.68929419336650     -0.31315088892431
  C   4.02624684185094     -0.73713117806301     -0.18946729239328
  C   3.61857031792198      0.48607365646992      0.30094641247973
  H   4.24774074940120      1.34473685832138      0.47204816272792
  H   5.02563113315693     -1.01578685990089     -0.48805906934796
  C   0.49619630601494     -0.84217797022179      0.19737208530035
  C   -0.69812402469750     -1.41687395703787     -0.04181575389067
  H   -0.73946946807177     -2.47862374246195     -0.23990625112536
  N   0.72698579810124      2.81763271942315     -0.23005112950642
  H   1.72298554575990      2.79420589541845     -0.35134187290405
  H   0.21820088680450      3.59777379647266     -0.60729079506602
  N   -3.39812937476477      1.15362717852961      0.29141859708323
  H   -4.18473115596669      0.53496921020368      0.19406160470194
  H   -3.54744650904688      2.12002035330609      0.06414661647327
