23
Coordinates from ORCA-job ./opt_b97-3c_parallel
  N   -5.04631950839399     -0.30380744263351      0.00147839175501
  C   -3.88309120439868     -0.32828087771549     -0.00206860109445
  C   -2.46836506094247     -0.27459463834888     -0.00498152501959
  C   -1.91260032247914      1.05533142936321      0.00462386154368
  N   -2.78684944365890      2.08253929817201      0.01972175556689
  H   -3.77995625653392      1.92765039507457      0.03497128148991
  H   -2.46165846123800      3.03010300799583      0.03723290748964
  C   -0.54379139827319      1.38181331102858     -0.00197438537157
  C   0.45790419145484      0.45649917724928     -0.01976711702860
  C   1.87701032885846      0.36351993957407     -0.01988312689828
  C   1.81960591153974     -1.08974266022897     -0.01880944165888
  C   3.14294730566012     -1.53270217508929      0.01427887764551
  N   3.97848131629724     -0.47284580318603      0.02565587530768
  C   3.23509780371564      0.68438873212342      0.00522080574822
  N   3.87315371093423      1.88619438151260      0.06704417475828
  H   3.39004969718562      2.68674463791201     -0.29895745715357
  H   4.85596721773290      1.85356638823630     -0.14742863445384
  H   3.54013793496648     -2.53537295065239      0.02660433445816
  C   0.40380024660905     -1.05316745046467     -0.02041086704029
  N   -0.57091276903727     -1.93128316806960     -0.01596195652164
  C   -1.84181428076462     -1.53122234333924     -0.01351194616774
  H   -2.54549923725594     -2.35745723538976     -0.01712601515783
  H   -0.28640803577818      2.43483494057591      0.01225673230331
