27
Coordinates from ORCA-job ./opt_b97-3c_parallel
  N   -0.73373906531738     -3.68822656200416     -0.06910065995651
  C   -0.94671423092855     -2.54483487835939     -0.01303816320218
  C   -1.18015292254928     -1.15718467876062      0.05560685081629
  C   -0.07486628548612     -0.33582604763669      0.18344932470785
  C   1.31980434476267     -0.42580918011410      0.24805531699633
  C   1.44697403704175      1.03136105522255      0.23453874878079
  C   2.80264510500031      1.28022525946704      0.02464408493158
  N   3.48846506044184      0.09857799392915     -0.06840515247891
  C   2.61492096214929     -0.93222069672563      0.04582127158145
  N   3.04196195089791     -2.22223175404306      0.02593798691833
  H   2.35138417744053     -2.92960277848098     -0.15647575360772
  H   3.94340234658092     -2.38053484688745     -0.39050373726818
  N   3.47474020267845      2.45953861691551     -0.15691119401557
  H   4.47232725699058      2.38193126251435     -0.04484299562526
  H   3.08130675506705      3.26375856274736      0.29933065633279
  C   0.02998689634375      1.16386599800134      0.18398630912237
  C   -0.95899714234872      2.09399592037365      0.09743361000485
  C   -2.33648639707139      1.76555563797869      0.03328255939792
  N   -2.96819679724661      0.59301539105051      0.00259149342837
  C   -2.52088698173235     -0.65645952777925     -0.00876321953192
  N   -3.51063508157952     -1.58137253651375     -0.13587826180999
  H   -4.45048084429036     -1.24839222652268     -0.02274106658320
  H   -3.32901812246850     -2.55305770226553      0.04167173428856
  N   -3.20477984911264      2.82509765708524      0.03156581310623
  H   -2.86505361105031      3.73526093799576     -0.21953310747744
  H   -4.15190699866477      2.61214592983466     -0.22730404567273
  H   -0.69449646014855      3.14482171197747      0.08790308621586
