23
Coordinates from ORCA-job ./opt_b97-3c_parallel
  N   -0.29083204577078     -3.76839433186876      0.00076221039441
  C   -0.43542447293516     -2.61394514017023      0.00070528131053
  C   -0.68006667047900     -1.22607223582698      0.00041906442423
  C   0.37699530508595     -0.34818270834864      0.00028271448468
  C   1.80131272438335     -0.35441638488141      0.00034112683983
  C   1.84000358260151      1.09881896693199     -0.00003962690191
  C   3.17935865863791      1.44930815206044     -0.00018133304878
  N   3.93717674176293      0.31326887060964      0.00010082647342
  C   3.12299154543728     -0.77760986023205      0.00041275696554
  H   3.53983238134651     -1.77155228263578      0.00065915279355
  H   3.65312766830695      2.41758006214046     -0.00045686634583
  C   0.40511347980646      1.14510715969857     -0.00010713765833
  N   -0.49213750361556      2.08263292017977     -0.00040275414112
  C   -1.81648074525781      1.77887594994978     -0.00037985295990
  N   -2.57360297563032      2.89819842590761     -0.00072842991628
  H   -3.57495050204822      2.87688658156545     -0.00055400335848
  H   -2.09975846731997      3.78264666538610     -0.00077643539366
  C   -2.49613688166902      0.54956811724203     -0.00009969796867
  C   -2.04841444114097     -0.77228766761465      0.00025196451818
  N   -2.98735707299866     -1.74236900173348      0.00050994895598
  H   -2.73018530777718     -2.71357704155346      0.00049308778739
  H   -3.96382564293656     -1.51857392341106      0.00011637330287
  H   -3.57616044958961      0.64597252600460     -0.00017294065766
