23
Coordinates from ORCA-job ./opt_b97-3c_parallel
  N   -1.78607217256567     -3.37295298033579      0.00132646255910
  C   -1.88260445862300     -2.21466871157811      0.00144633691557
  C   -1.87316888033214     -0.79713267446954      0.00153527717996
  C   -0.63061251685047     -0.18918704646239      0.00079480134419
  C   0.73166899187649     -0.48304144768015     -0.00009380803233
  C   1.09940147680769      0.91534087975389     -0.00095694869329
  C   2.51137511255056      0.92768379507035     -0.00251861804717
  N   3.00217271600806     -0.34699578340192     -0.00259575197563
  C   1.95081372412337     -1.20515192837130     -0.00123391698788
  N   2.13073892839884     -2.53014008072426     -0.00023452419318
  H   3.06018229819089     -2.90835063023301     -0.00409402453148
  H   1.34590416880752     -3.15540414307820     -0.00195202298747
  N   3.35172816123705      1.97006120649482     -0.00595705695391
  H   4.34210743668214      1.80971868596462      0.00313037507907
  H   3.00698855252530      2.91031636044672      0.00523657914297
  C   -0.26215019378552      1.30273374866218      0.00011847992840
  N   -0.94941035905055      2.41010666185772      0.00037507171060
  C   -2.29448360564027      2.37860759000466      0.00136638717419
  C   -3.21677558152235      1.32788369670711      0.00208940673236
  C   -3.06613929516396     -0.05503587697389      0.00213426129206
  H   -3.98108321025357     -0.63306057794436      0.00268420301928
  H   -4.24635813112415      1.66522167049634      0.00269939798721
  H   -2.73823383009627      3.36879415809452      0.00157633903737
