27
Coordinates from ORCA-job ./opt_b97-3c_parallel
  N   -4.00255792216399     -2.52677104002648      0.81243659939720
  C   -3.55347542754277     -1.52099434772783      0.43822675730826
  C   -2.98457983609673     -0.32168821745402     -0.01274286438828
  C   -1.73182674230229     -0.11671230373816     -0.57609289246625
  C   -1.62209250261491      1.28698647889009     -0.70977737784267
  N   -2.72859532846733      1.97360682098206     -0.30358420337091
  C   -3.57509181319875      1.00595860463528      0.05423750018195
  H   -4.59621970635397      1.21873740056610      0.33524732629638
  C   -0.20052987886453      1.20828438463254     -0.45689767246472
  C   0.81374001560970      2.12889192965213     -0.08512157757513
  N   0.42319030298440      3.42842233119491     -0.00423765422259
  H   1.00872550353357      4.09974477864843      0.45862830441773
  H   -0.56467775939770      3.62215811098816      0.00736727253972
  C   2.11760098892057      1.73778216061654      0.13796099746199
  C   2.72805797093753      0.46058692665728      0.09062975122448
  N   4.08861666616839      0.49065075483545      0.28472216388319
  H   4.61564646161914     -0.35096805611747      0.12490783131299
  H   4.57413895225428      1.33307324099186      0.03681341819636
  C   2.12651448492316     -0.81248508271084     -0.04698151586176
  C   3.00401271512262     -1.91353772977954     -0.03614734043545
  N   3.72684131010762     -2.82699861835215     -0.02843695441616
  C   0.73412438898672     -1.14411976362894     -0.16025009592177
  C   -0.22596111242530     -0.18802856715318     -0.39845247163852
  N   0.33712760437338     -2.43833733068750     -0.01070471964685
  H   1.01642509815856     -3.17852458666541     -0.01697286557171
  H   -0.59084137386491     -2.68579934668810     -0.30689818821697
  H   2.80374860509374      2.54112366053869      0.38396254481946
