28
Coordinates from ORCA-job ./opt_b97-3c_parallel
  N   -0.69530510537864     -3.69346125992739      0.08027787733554
  C   -0.91551593494001     -2.54996390039499      0.03805580127335
  C   -1.14971549338201     -1.16378570606849     -0.01164718546309
  C   -0.03795823076387     -0.33607334792430     -0.06864546656106
  C   1.35611900925534     -0.43167107961140     -0.09332818818966
  C   1.47889395513931      1.02867538561152     -0.08752487055021
  C   2.83108270931272      1.34692939155328     -0.01301942428277
  N   3.43174893279329      2.58801741641727      0.09949749267142
  H   4.38971937242774      2.62210480363123     -0.20903585810779
  H   2.89724023732433      3.34468730832969     -0.29318678286403
  C   3.52531315499142      0.09956947358573      0.02510422013375
  C   2.63268231573303     -1.00012947031222     -0.01746625232952
  N   2.97233684502427     -2.33076645422316     -0.06618147075060
  H   3.84483702665290     -2.58274516779870      0.36616777477506
  H   2.22899244129616     -2.97316607404397      0.15407343764399
  H   4.60150961614640      0.00881535925351      0.08103925417923
  C   0.06380883435045      1.15479989383236     -0.07270385059372
  C   -0.93313839255695      2.08841930222939     -0.04383373775270
  C   -2.30684752845077      1.75854858459306     -0.02805556862715
  N   -2.94328902512594      0.58433811682098     -0.01740118453076
  C   -2.49141588939146     -0.66337389140196      0.00077881177049
  N   -3.48378081211912     -1.59106764605618      0.07602174946007
  H   -3.29096523593453     -2.56086278666940     -0.10019576295053
  H   -4.41778549647151     -1.25853034257747     -0.07917416917750
  N   -3.18085517215922      2.81511923000146     -0.06331268990043
  H   -4.13261085524138      2.59331381229837      0.17052460025893
  H   -2.85431282141755      3.72207316144869      0.21624769095576
  H   -0.67130892701456      3.13973812870416     -0.04756411952675
