26
Coordinates from ORCA-job ./opt_b97-3c_parallel
  N   5.38933322697939      1.48044628561767     -0.05848192569717
  C   4.24838559796113      1.25134857951381     -0.03047795014720
  C   2.89550718526529      0.89522351363037     -0.00040142504637
  C   1.78167824835099      1.79475705019771     -0.00471900893344
  C   0.66090717074778      0.99871123774375      0.02077847420612
  C   1.07016933864376     -0.40664943958676      0.03826772024864
  C   2.46577975639366     -0.48250750464046      0.02583592607657
  N   3.26915187520862     -1.56117331725159      0.07374636501180
  H   4.25697919238957     -1.45769461615962     -0.07809368720395
  H   2.87905827365276     -2.47866783552107     -0.04821380063721
  C   -0.26892013624116     -0.81767302598246      0.02519688155514
  C   -1.02316881427958     -1.98479618900973      0.00209682873180
  C   -0.30992621385343     -3.20584917879144     -0.01512163129730
  N   0.35826504651319     -4.15642646194471     -0.03273201368509
  C   -2.43090567622452     -1.97709193871253     -0.01929197810257
  N   -3.31834071782275     -1.00654753119242     -0.01271919076248
  C   -3.16557816706169      0.32929309517499      0.00292378152384
  C   -1.97283168171589      1.13726964385484      0.00013266495485
  C   -2.11626057505069      2.54083383568602     -0.00840519189706
  N   -2.28918096057615      3.69066368523585     -0.01455782520672
  C   -0.70478589518039      0.59566987141831      0.01521371625161
  N   -4.33989368769914      0.97990037057048      0.01807257622148
  H   -5.17878265974984      0.42769230470477      0.01093950271465
  H   -4.40226103966385      1.98287051769795      0.02856336742549
  H   -2.88585383311093     -2.96320440815560     -0.04459754920373
  H   1.86886556652407      2.86847032760180     -0.03032652360164
