24
Coordinates from ORCA-job ./opt_b97-3c_parallel
  N   -5.43265557765480     -0.70344885588289     -0.00024795551666
  C   -4.27637040825929     -0.60147357984879      0.00001495228963
  C   -2.85585948731296     -0.48196731547072      0.00023050890669
  C   -2.37881420196763      0.84014855237080     -0.00090629724266
  C   -1.05228295383552      1.28123414069845     -0.00106391838540
  C   -0.73276684252624      2.66372539474593     -0.00223055596208
  N   -0.35666964016320      3.76270468653445     -0.00307168227273
  C   0.02068541078584      0.40691912210330     -0.00007120944025
  C   1.41057801919107      0.38216384285175      0.00028497999063
  C   1.44766844617191     -1.06555427691082      0.00177412251963
  C   2.82229863645299     -1.40143498500878      0.00275584948468
  N   3.58930973309632     -0.27276388438917      0.00194785357393
  C   2.76527345310729      0.80502587658850      0.00050687221936
  N   3.24270724899669      2.05085966536133     -0.00057549622012
  H   2.62230073878492      2.84013887509876     -0.00138997898824
  H   4.23440902257293      2.20707506665167      0.00001637792196
  N   3.39831238791429     -2.60658965036161      0.00462824169051
  H   4.39944846803543     -2.67970798276409      0.00366934234283
  H   2.84680863931108     -3.44312015055189      0.00351970911773
  C   0.03902547318780     -1.12967089874292      0.00146256884773
  N   -0.88626737982238     -2.05009369387784      0.00218973208351
  C   -2.18268153729528     -1.72718466109901      0.00157288862743
  H   -2.84121936414549     -2.58772646931483      0.00225340859742
  H   -3.13746751382573      1.60998088601851     -0.00175963458552
