21
Coordinates from ORCA-job ./opt_b97-3c_parallel
  N   -4.60661822457399     -0.19525426029563      0.04769333393264
  C   -3.27060174013032     -0.08438870597620      0.10822694652157
  N   -2.47803399947184     -1.15184101012314      0.21706052462635
  C   -1.24509698624926     -0.57977308797582      0.20381911642794
  C   -1.26480375983916      0.87630665542141      0.09113340700151
  C   -2.56010895451306      1.22846339989712      0.00377354708895
  H   -3.04097701472366      2.18439394452738     -0.13899747567492
  C   0.22214566215211      0.87235663263550      0.03165789526736
  C   1.28653190604733      1.66739634086557     -0.10410419782221
  N   2.60690923434663      1.25180322083281     -0.06377947319546
  C   3.03252710182734      0.03483022819282     -0.02630328196609
  N   4.35440217203695     -0.16558558085418      0.25393249608757
  H   4.93465976881549      0.65430586382406      0.27935235891812
  H   4.76417368337735     -1.02556110750134     -0.06262384510799
  N   2.44943563700373     -1.25603061262983     -0.24609261485471
  C   1.20019677992211     -1.53156647399022     -0.12922568074899
  C   0.13918966504924     -0.60830812291959      0.12129177562741
  H   0.92766613964260     -2.57251899312167     -0.29960586059159
  H   1.16185883683212      2.73811524211130     -0.20508720139408
  H   -5.01995999765631     -1.09469630548244      0.22046452361549
  H   -5.19147777069542      0.61451180256205      0.12926464084114
