26
Coordinates from ORCA-job ./opt_b97-3c_parallel
  N   5.97781522015246     -0.07573784834241     -0.03744033021562
  C   4.81848870327129      0.02288611368618     -0.01402340284919
  C   3.41829165478212      0.04848893079247      0.00602735113804
  C   2.59310303287507      1.20154392162016      0.00678906236699
  C   1.29437730612992      0.72458016743255      0.00991127364246
  C   1.31120167085697     -0.74022822715817      0.01244991741609
  C   2.63079905248884     -1.17347240113063      0.00905662438031
  N   3.15390572665793     -2.42021697675373      0.06124443066061
  H   2.56231284386198     -3.19737727302135     -0.16856642280035
  H   4.13111480097599     -2.54018555317798     -0.14474545511775
  C   -0.10806489207312     -0.76521220432554      0.00721555551244
  N   -1.01643963589614     -1.70259739150101      0.00311876657470
  C   -2.33398889583024     -1.43589089091164      0.00074667058259
  N   -3.09111745349178     -2.54224092696600     -0.00036248797862
  H   -4.09573640786702     -2.51149821979014      0.00171768037922
  H   -2.62182173875082     -3.42991239583720      0.00627568795945
  C   -3.02616932142934     -0.16257663416350     -0.00162912789451
  C   -4.43891246474487     -0.25709675283995     -0.00512084261217
  N   -5.59261850434199     -0.40426104526707     -0.00801453683166
  C   -2.51547074283149      1.13357984206638     -0.00135638841387
  C   -1.19596416794041      1.60199912442102      0.00241509653639
  C   -0.95768656732058      2.99841481386800      0.00073428371800
  N   -0.73188954464421      4.13720495225153     -0.00095139043185
  C   -0.11327638314695      0.73341337017336      0.00729250045308
  H   -3.27259524942170      1.90607114897427     -0.00421529886316
  H   2.95317482637807      2.21665518160045      0.00009398238839
