24
Coordinates from ORCA-job ./opt_b97-3c_parallel
  N   -4.82273890803403     -0.35962875923325     -0.00741401330707
  C   -3.66342244343181     -0.23660839087193     -0.00436200493390
  C   -2.26439946379192     -0.08717735990556     -0.00048905306108
  C   -1.80441844303823      1.27017143228388     -0.00014261802981
  N   -0.55082264289459      1.77345378898615      0.00382818756353
  C   0.47376800280871      0.97318286230823      0.01527594011619
  C   1.88691986066574      1.09669563877997      0.01569359252486
  C   2.03436394403433     -0.36284903744593      0.02920432671338
  C   3.41383957936487     -0.60135610264379      0.00240445868553
  N   4.07520104004365      0.59006945897867     -0.02273687316269
  C   3.17225676346097      1.60943765128407     -0.01309155738375
  H   3.51569237651486      2.63125241382335     -0.03536848321187
  N   4.10691563359526     -1.77628168804931      0.06026698708947
  H   5.07030136297105     -1.70807634019709     -0.22299789395009
  H   3.63224640701866     -2.59511606064726     -0.27655669754271
  C   0.63596325232718     -0.54034940493591      0.01979944798190
  N   -0.19728625654705     -1.54395890184824      0.00793496759330
  C   -1.52579655595129     -1.31833704213591      0.00028811267888
  N   -2.23535974492209     -2.46226396634612     -0.00996977327979
  H   -3.23886052937709     -2.48368675884225     -0.00001575693328
  H   -1.71971462717460     -3.32256534302859      0.00900788008848
  N   -2.73513391357170      2.24172555245354     -0.00555111694554
  H   -3.72153351460829      2.05538513928036     -0.00701933676575
  H   -2.40768621796258      3.19018366635289     -0.00202535392819
