24
Coordinates from ORCA-job ./opt_b97-3c_parallel
  N   -4.40630224043894     -2.46214860758963     -0.02150218835777
  C   -3.55908736795479     -1.66238585053832      0.00295330017049
  C   -2.57764911857212     -0.65391525743701      0.03225158987338
  C   -1.19417394310956     -1.10454254825642      0.01829129426761
  C   -0.15309434890299     -0.27878718684711     -0.06412995365813
  C   1.33370606565627     -0.26513929606061     -0.10457351734973
  C   1.31706422980903      1.18121902362556     -0.15046140935172
  N   2.54517233316912      1.76072934482466     -0.12002592133169
  C   3.35487152279330      0.71008542092097     -0.05233646156697
  C   2.63768231200124     -0.62461651366166     -0.01683135003731
  C   3.29244079978616     -1.85395353692063      0.10691012349866
  N   3.91008220214463     -2.83396137429916      0.21146530859304
  N   4.68493244435107      0.79462676004097     -0.01375342368313
  H   5.12507097661625      1.69715078715868     -0.00468597267168
  H   5.25561419452508     -0.02518310919590      0.08440380715040
  C   -0.07461772685671      1.19924103158060     -0.08160146668389
  C   -1.13789452219156      2.12393338535325      0.13500836496991
  N   -2.39874109894919      1.87267027064068      0.19192348197785
  C   -3.05723749053895      0.65347227444948      0.01210772680493
  N   -4.38000678759726      0.89989677473820     -0.17423517628946
  H   -5.04199995140438      0.14405206469792     -0.20796179234332
  H   -4.70933531586995      1.81057293689383      0.08914705268093
  H   -0.86410259498406      3.16265416823857      0.30717069597104
  H   -1.03632792818150     -2.17251099205682      0.05590222056672
