25
Coordinates from ORCA-job ./opt_b97-3c_parallel
  N   -0.10258639747346     -3.71819774952290      0.02149064110751
  C   -0.30502215694921     -2.57153256287609      0.02180922620843
  C   -0.61136054903904     -1.19692607901619      0.01664949612772
  C   0.43308292719227     -0.28876967458251      0.01035395563749
  C   1.85728819739682     -0.30126688368240      0.01255992069008
  C   1.88160514447309      1.14801517499588     -0.00497340002045
  C   3.19595446135008      1.57434640152324     -0.01277720356832
  C   3.97222053604813      0.37943948291481      0.00082208285176
  C   3.16302544560682     -0.77829144809326      0.01568986714280
  H   3.51644112250194     -1.79654735209243      0.02589809761445
  H   5.05298010255985      0.36279205285099     -0.00080874378412
  H   3.59461293507548      2.57667010649517     -0.02561024847859
  C   0.44086807586159      1.18291450786378     -0.01141473853602
  C   -0.57498074649059      2.09120715742936     -0.03352233816772
  C   -1.94602569634431      1.74697287801560     -0.03282910228073
  N   -2.81422645466297      2.80320078658635     -0.09772493948277
  H   -3.77886056417669      2.65193966646259      0.13515685286917
  H   -2.46510998208427      3.71718014165521      0.12585203450155
  C   -2.53523551802208      0.47452734735510     -0.01219399487132
  C   -1.99769091245781     -0.81497008180522      0.00813974124895
  N   -2.88610990635280     -1.83916242982285      0.05297473510408
  H   -2.56974303193392     -2.78777974605346     -0.04830267258783
  H   -3.86149786834086     -1.66641034044256     -0.09868055618257
  H   -3.61986330593758      0.49225496631858     -0.01346560138886
  H   -0.32364919930074      3.14407253302322     -0.06270753915464
