23
Coordinates from ORCA-job ./opt_b97-3c_parallel
  N   4.96765363926842      0.17212052495777     -0.01684468588059
  C   3.80674089328421      0.25764661559964     -0.01139555542637
  C   2.39301176042426      0.28000656309765     -0.00443669904387
  C   1.76293544454781     -1.02048740302521      0.00348571942466
  N   0.45412515155837     -1.33776753652950      0.00892419612416
  C   -0.44677455307773     -0.38927220225692      0.01528078178314
  C   -1.85850474739555     -0.32649470725181      0.02179061915715
  C   -1.81532051670952      1.14040853474436      0.01650171599650
  C   -3.12277548515044      1.62163455945155      0.00276990958693
  C   -3.95045794069723      0.48929471993127     -0.00143869173059
  C   -3.19099284557674     -0.72821651754738      0.00574103040598
  N   -3.71670897121378     -1.99265486020115      0.06408179002204
  H   -3.10111720182055     -2.73904357056791     -0.20862307168057
  H   -4.65335600002441     -2.10737681538829     -0.28342609947705
  H   -5.03146570733519      0.51936560611392     -0.00620535545885
  H   -3.46483069711756      2.64409435634973     -0.00713849699027
  C   -0.40906417195699      1.12612717750627      0.01209182167636
  N   0.57051708542704      2.01121024314580     -0.00207791901694
  C   1.82201761470759      1.56807743757214     -0.00761898749556
  H   2.56118139510608      2.36310048434319     -0.01621690919539
  N   2.56486469482391     -2.09563813173779      0.00323386432687
  H   3.56689637347201     -2.02058844824433      0.00537322210356
  H   2.13218580175599     -3.00120693466302      0.01633040108869
