27
Coordinates from ORCA-job ./opt_b97-3c_parallel
  N   -3.22041196790387     -3.37297368006995      0.51044566445334
  C   -2.66848379400852     -2.39367858609748      0.21128034824698
  C   -2.06480436509118     -1.17681978073080     -0.12957629884188
  C   -0.76619459711568     -0.89440248039459     -0.49438867938071
  C   -0.60023073823100      0.51518306352303     -0.57876843256278
  C   -1.84511732646019      1.15125351288272     -0.29323951236537
  C   -2.11262751563285      2.51855703401860     -0.22735992166059
  N   -2.29865250042300      3.66653797491811     -0.14479670599724
  C   -2.76583715319257      0.11008076876811     -0.06611306249030
  N   -4.10287868345289      0.22163072860941      0.11421068069080
  H   -4.47469400267512      1.12792788562551      0.34059473422370
  H   -4.59039675716520     -0.55547587624289      0.52627821568266
  C   0.78820591895508      0.34947198999366     -0.31634675190536
  C   1.90307680416226      1.18044393981542      0.05057407895307
  N   3.14586065752337      0.78876754903790      0.16188397283552
  C   3.67109297027614     -0.45904797940818      0.09306336740517
  N   5.05028392074111     -0.43262235780887      0.20795803880431
  H   5.45756523217669      0.47052980646588      0.03814808944010
  H   5.55835261056309     -1.19799784184334     -0.19853427644835
  C   3.05347725749706     -1.70647850184011      0.02810156534868
  C   1.68858662775143     -2.00746511373953     -0.12476513016850
  C   0.72537977123575     -1.06851762683013     -0.31737330275448
  H   1.40069130771645     -3.04972646569566     -0.08904415442502
  H   3.71829049580885     -2.55696060003827      0.11266957512746
  N   1.62341107075926      2.48254552277876      0.27549959460305
  H   2.37137200650377      3.11028269096360      0.50838617752244
  H   0.70112908008167      2.85590429033922      0.14155542526352
