27
Coordinates from ORCA-job ./opt_b97-3c_parallel
  N   -5.26667553857622     -0.64368988458053      0.05760788764560
  C   -4.12770483957904     -0.39475114735987      0.03105483392388
  C   -2.76714663133002     -0.09398974721186     -0.00170869486453
  C   -2.22872650943883      1.24476488197372      0.00278648536688
  C   -0.84513916356099      1.09167903514972     -0.04513768000236
  C   -0.52921374864660     -0.33861697106045     -0.07152493983178
  C   -1.71634744795777     -1.07414597256054     -0.04391375139330
  N   -1.89648258526766     -2.41105982152617     -0.10828822215771
  H   -1.10635860329084     -3.01224095064287      0.04524949859912
  H   -2.79816931944891     -2.79510625171435      0.11400539936305
  C   0.84227806729635     -0.07901918115221     -0.06336219772318
  C   2.04666471673768     -0.76020005664179     -0.03888431529495
  C   1.99250913310519     -2.16808500341068     -0.00814824336242
  N   1.91443400613230     -3.32912372570143      0.02608115222898
  C   3.30261551690773     -0.09020089376652     -0.02249587206081
  C   3.48604878298006      1.31079770460221     -0.01629684827189
  C   2.60774650368153      2.38190615042161     -0.01499366347666
  N   1.26612992905078      2.49105552784027     -0.01883816798370
  C   0.53204162031935      1.41137936973079     -0.04179328776882
  H   3.10239647306689      3.34832459773298     -0.00515917319835
  H   4.52674773725836      1.61567037326652     -0.01448732316279
  N   4.42025354856823     -0.86017496487248     -0.04176846151051
  H   5.31545017587851     -0.44288657372275      0.12983186094889
  H   4.35539887049003     -1.85470735738301      0.08538427991961
  N   -2.97450973071955      2.37073782657422      0.10654337960606
  H   -2.53833889968130      3.24420208046290     -0.12657069328965
  H   -3.95891944607527      2.31222197455249     -0.09044128924858
