27
Coordinates from ORCA-job ./opt_b97-3c_parallel
  N   2.05801330540015      3.43234910564583     -0.05703142240268
  C   1.18177359906431      2.66707213610771     -0.02265697030657
  C   0.13118202339816      1.72827408732479      0.01699852143844
  C   0.48752773513628      0.39660762891191      0.07993864740968
  C   1.66211471130558     -0.38288040383385      0.11120480644395
  C   0.87529248089591     -1.61207949668335      0.08358667159847
  C   1.78847163677969     -2.64830235708079     -0.01876981807243
  N   3.05328305255074     -2.14345888185466     -0.05154531178143
  C   3.00106889145858     -0.78000684052782      0.02102531824497
  N   4.13967959893896     -0.04074271808551      0.06205412071751
  H   4.97514074823689     -0.50464843002019     -0.25070771056703
  H   4.07098130361127      0.93534514060758     -0.16649930290659
  H   1.63282509892031     -3.71328514721004     -0.08254516303367
  C   -0.32637375257301     -0.84957570411791      0.07676508598235
  C   -1.68843434491710     -1.03858176137010      0.03786605347550
  C   -2.18002846944660     -2.36102195241568      0.00661023419492
  N   -2.63065989737322     -3.43276048638323     -0.02426568257351
  C   -2.64201994315893      0.03835961653508      0.02665108909438
  C   -2.38824636287158      1.41287121952146      0.01424341911224
  C   -1.22399264722120      2.18754423394596     -0.00861819698784
  N   -1.39185428315249      3.53446926070440     -0.09165473664102
  H   -0.60790889014993      4.14711888025684      0.04922679045941
  H   -2.29958195791010      3.93371496928162      0.05511345275929
  H   -3.29400075310127      2.00989459651574      0.00641371268400
  N   -3.94769475959903     -0.33496196028974      0.05661395912941
  H   -4.19955910611585     -1.30097467471060     -0.05908902184047
  H   -4.66736233340652      0.34107759762455     -0.11535180593128
