30
Coordinates from ORCA-job ./opt_b97-3c_parallel
  N   -0.36153757855776     -4.13922917362636      0.00671206556144
  C   -0.68051458189719     -3.01897272259452      0.02594797730825
  C   -1.03147401969120     -1.65591690512269      0.05154085003509
  C   0.01413322230424     -0.74765561174851      0.08127617109216
  C   1.41650324415071     -0.74185682207150      0.07596130274878
  C   1.42342241587204      0.72610159078888      0.10467279237732
  C   2.74601028148641      1.16772258431689      0.03961378614836
  N   3.21698871679597      2.45273347785608      0.10576690370705
  H   2.54740951378080      3.17621927273156     -0.09738574957184
  H   4.12164427919274      2.62435414409863     -0.29789620670269
  C   3.53680669021507     -0.01472128321297     -0.02207276252557
  C   2.73506234882660     -1.19181321281282     -0.00965264484472
  N   3.18746215964274     -2.47726203391875     -0.14920056908492
  H   4.13033136536216     -2.66252551324181      0.14602197085608
  H   2.53901003351663     -3.20325751707066      0.10548066190545
  H   4.61631166837000     -0.01854900675754     -0.08155826044959
  C   0.02176098321066      0.74549888035550      0.09461670097220
  C   -1.01383974222720      1.66527837324257      0.05654713874743
  C   -0.64530036485048      3.02238936960871     -0.00552623145317
  N   -0.30892187147391      4.13594562984504     -0.06954168751032
  C   -2.39459747148384      1.30191396704109      0.04396032023078
  C   -2.94518835716601      0.01527009969858      0.04343673361633
  C   -2.40856136333040     -1.27715708795593      0.04991106344015
  N   -3.31027536915576     -2.30556601019709      0.09942069926886
  H   -4.26187110948224     -2.11881165119084     -0.15742296421253
  H   -2.99019046636134     -3.23733998127681     -0.10130374050400
  H   -4.02977874457666      0.02140344073875      0.07520233697581
  N   -3.28571491535877      2.34041061840232      0.07733874010660
  H   -4.23516699816547      2.16281298350601     -0.19368587499031
  H   -2.95228061834850      3.26725957966820     -0.12456387024842
