26
Coordinates from ORCA-job ./opt_b97-3c_parallel
  N   5.53111352541465      0.46404007628462     -0.03064291775294
  C   4.36601947917186      0.47025013550327     -0.03373676557380
  C   2.96852204172028      0.39758230607020     -0.02568476886197
  C   2.26219672361818     -0.86259339283213      0.00440939802006
  C   0.91892278134740     -0.51661981497184      0.03199373771357
  C   0.80525320769396      0.93510299505899      0.02249423764022
  C   2.06349660728791      1.49953512280763     -0.01782175360261
  H   2.35973090023224      2.53531115362768     -0.03356494841339
  C   -0.61914233960765      0.83122312979016      0.03912030878175
  N   -1.61271484204515      1.67338007368086      0.03735220120513
  C   -2.89700425837122      1.24268624975559      0.04823432216807
  C   -3.44899934227269     -0.04805135017582      0.03918205327184
  C   -2.85079701317524     -1.31274476118015      0.03995747850982
  C   -1.46853578246886     -1.62246130478113      0.04236414203235
  C   -0.50073613667997     -0.66554456876193      0.04468765829109
  H   -1.18679041214860     -2.66872319794453      0.04173912148582
  N   -3.69827283779386     -2.38889232317324      0.08230839306517
  H   -4.66258985612507     -2.24764819987990     -0.15879632834628
  H   -3.33167807153024     -3.28657923261678     -0.17701514302993
  H   -4.53338419329540     -0.06564927247104      0.06056025591854
  N   -3.77106184996137      2.28661262038219      0.09621362057104
  H   -3.38000729854352      3.19577119470376     -0.07471707616684
  H   -4.74125394963324      2.15221890092716     -0.11827767704979
  N   2.86615868150573     -2.09645962985031     -0.06632559549260
  H   2.36065459173500     -2.84984531008876      0.36701757995443
  H   3.84532108662484     -2.10718383976451      0.17280042206115
