24
Coordinates from ORCA-job ./opt_b97-3c_parallel
  N   3.78136493028089      1.83363787023304      0.00008688382752
  C   2.62124062992172      1.88992031841942     -0.00033053336484
  C   1.20330142860600      1.84803038538662     -0.00061331048503
  C   0.45729085133639      3.04831144650623     -0.00162980421570
  N   -0.84857863055142      3.28043884885536     -0.00218928014236
  C   -1.87781694055308      2.44386350957073     -0.00200231776484
  C   -1.94798966623218      1.03233481931304     -0.00108299366556
  C   -3.20849332483962      0.38159697974576     -0.00125773659111
  N   -4.19628841545079     -0.22939627967981     -0.00160043734106
  C   -0.83396096552509      0.21381516363788     -0.00003831025134
  C   -0.45418706935195     -1.13305938736405      0.00091349798925
  C   0.94782573278398     -0.76987401015848      0.00108540619650
  C   1.65916548751350     -1.99358961504601      0.00132210878839
  N   0.78777827037842     -3.03989440084357      0.00134754873023
  C   -0.48194337827140     -2.54820675700209      0.00103753599849
  N   -1.53858179316742     -3.36354609374432      0.00096474327197
  H   -2.47263743060565     -2.99649669001641      0.00036206405520
  H   -1.40276837450729     -4.35814059793949      0.00069446624532
  N   2.97870953884066     -2.19370921710395      0.00133367407968
  H   3.61741135659223     -1.41960614710903      0.00190547403721
  H   3.34245160439507     -3.12931698304717      0.00203830556850
  C   0.62615570882245      0.59186803444835      0.00014985586308
  H   -2.84081484569276      2.94485353548474     -0.00272195726065
  H   1.05633993497734      3.95357283875321     -0.00206778836890
