24
Coordinates from ORCA-job ./opt_b97-3c_parallel
  N   0.60813829560724      3.84641273371233     -0.03303576078663
  C   1.07198708868180      2.78074385001698     -0.01370093053802
  C   1.53294456033961      1.44498976290645      0.00521486468700
  C   0.58766073234252      0.42790142444156      0.03984154121575
  C   -0.79260951000387      0.21854535932829      0.05682826860026
  C   -0.61553413287762     -1.23626974361606      0.02503206322973
  C   -1.85057296224587     -1.83687294562559     -0.01424176797047
  C   -2.80561770428947     -0.76780588757494     -0.00181756333503
  C   -4.19834536420872     -0.90358317691918     -0.04376786503854
  N   -5.36073834412587     -0.95271419632810     -0.08213581961312
  C   -2.15993039006922      0.51722194465225      0.04175347523485
  N   -2.77554233182474      1.71652852087612      0.10975313385224
  H   -2.23737154066362      2.55111719913544     -0.04195518100325
  H   -3.76034217519660      1.77552098876309     -0.08225123623078
  H   -2.11294576272091     -2.88125776569613     -0.05601600664169
  C   0.80336314546938     -1.05345507898866      0.01761996830447
  N   1.86051871505088     -1.81198759401230     -0.00293269985465
  C   3.09784465550984     -1.25415091012558     -0.00208322239133
  N   3.57087773252749      0.01477805258542     -0.03223705059585
  C   2.91143722544096      1.15180686783302     -0.03548732283567
  H   3.56078093135606      2.02244554033820     -0.07661471541713
  N   4.08073116970055     -2.16713139933397      0.02355476743196
  H   3.85076835935862     -3.14369000949926      0.04139067964978
  H   5.03615976554157     -1.86111821336934      0.01654035204613
