24
Coordinates from ORCA-job ./opt_b97-3c_parallel
  N   4.32894341846299      2.33041480643156      0.09050053324412
  C   3.37896031948050      1.65500190580833      0.06077323420009
  C   2.26411857779197      0.79811961431879      0.03112597194022
  C   2.54464533970979     -0.57217676823038     -0.02585026386066
  N   1.72280107200627     -1.66833144648206      0.08084625429129
  C   0.43279793914103     -1.74940338554901     -0.03287930365087
  C   -0.48147213678340     -0.65361300857809     -0.27806158815044
  C   -1.84988848753705     -0.45870448838930     -0.39263487078595
  C   -1.67340800534942      0.95312758899805     -0.16165587966514
  N   -2.79451038492540      1.53482208781390      0.12404945709698
  C   -3.68803111314645      0.40850541141435     -0.02392701640747
  N   -3.16381917430782     -0.79339834228232     -0.29242112546218
  N   -4.99102828798138      0.64028343892206      0.13289544097050
  H   -5.63985792166219     -0.12470001296072      0.12409415796865
  H   -5.29040231590503      1.54172873398776      0.45440627097755
  C   -0.18459440396766      0.78334275446803     -0.13063551888590
  C   0.96510158567778      1.43689210668470      0.03546197005282
  H   0.95409316307379      2.50901167137408      0.17030612108655
  N   -0.14589791606436     -2.96247791837606      0.09254521891535
  H   0.42535591127614     -3.75148678092338      0.33790109223225
  H   -1.14505816075388     -3.05279272708232      0.12507201602505
  N   3.83696250836877     -0.98027369478036     -0.18058277392910
  H   4.58351955780051     -0.31391832322233     -0.08134882873761
  H   4.02932131189509     -1.93178383466473      0.07377133493430
