22
Coordinates from ORCA-job ./opt_b97-3c_parallel
  N   1.44819092182839      3.49975634606730      0.00142684134425
  C   1.75580050170384      2.37921251434870      0.00134528971127
  C   2.00593332541083      0.98680301899755      0.00125665787110
  C   3.31595678940048      0.47208401974775      0.00361468011027
  N   3.76633857335142     -0.77530210174240      0.00332125727404
  C   3.09581779281611     -1.93230331747816      0.00189142473512
  N   1.80155365963385     -2.28202387599100      0.00181111072441
  C   0.86969454821382     -1.35798728714255      0.00090300037017
  C   -0.55247639326105     -1.29892033827950      0.00012777830048
  C   -0.49178774328551      0.15957481407056     -0.00101632581775
  C   -1.79496794303826      0.67237458184151     -0.00075297957029
  N   -2.21421555396561      1.94253110675506     -0.00153123514047
  H   -3.19429291301788      2.16414620560508     -0.00050489895445
  H   -1.55666989847906      2.70173214466035     -0.00140122105031
  C   -2.64762225503982     -0.49934172818699      0.00036429902511
  C   -4.04407447876244     -0.40070705273908      0.00093325340345
  N   -5.19709154927839     -0.24336770311949      0.00101553815400
  C   -1.87884849171981     -1.69454861871587      0.00103712718245
  H   -2.30005742022766     -2.68658974535479      0.00214260724174
  C   0.90415607422468      0.13911462593321     -0.00010759117123
  H   3.75829491122275     -2.79153959567184      0.00097631119259
  H   4.10481504546927      1.21943973539460      0.00596483366403
