25
Coordinates from ORCA-job ./opt_b97-3c_parallel
  N   5.24456131028699      0.66880200188514     -0.06713459625644
  C   4.08625152710033      0.56438850831899     -0.02719853882410
  C   2.68523000529626      0.36218775384676      0.01388271515967
  C   1.93680679134694      1.55625089952973      0.02836436112867
  N   0.63408670233472      1.82368443794081      0.05531053406715
  C   -0.24636724225732      0.84974120383047      0.08908612543230
  C   -1.64387090561344      0.73441730536857      0.10663726691070
  C   -1.56342600603265     -0.71869546141516      0.10014826160710
  C   -2.88601942284565     -1.16386444922159      0.00300479070289
  N   -3.74342057479267     -0.09805908210302     -0.04769168342586
  C   -3.01800987103141      1.04393956483189      0.00538152811635
  N   -3.62489059186412      2.25337826810119      0.01331256344023
  H   -3.06676765315828      3.05949810692735     -0.20112311395246
  H   -4.58186635036829      2.28082151664362     -0.29340774544230
  N   -3.38707520972419     -2.42469547288275     -0.10294232113202
  H   -2.82891789835542     -3.17284379934366      0.26677603904113
  H   -4.37439179637496     -2.50891196961021      0.07158195409756
  C   -0.14716271840350     -0.67607718022476      0.08662977686210
  C   0.94726488268586     -1.48455986084042      0.04145599674998
  C   2.27487358302068     -1.01343911294133      0.01607630421226
  N   3.25435384193021     -1.95387718065291      0.01461642818800
  H   3.01852384543021     -2.91650055280112     -0.13306816691515
  H   4.21494379521902     -1.69323096911482     -0.12553263097800
  H   0.80636763896141     -2.56001965392064      0.02680310355457
  H   2.55554546230926      2.44733497504793      0.00825967465585
