20
Coordinates from ORCA-job ./opt_b97-3c_parallel
  N   4.07399840872418      0.03016050078828     -0.06265111463490
  C   2.69059267897138      0.07751938291443     -0.06265439146183
  N   2.16096010899254      1.26324428044829     -0.03558444233733
  C   0.83447058164863      1.58796499794250     -0.05095474748740
  C   -0.20657357857992      0.74715050452579      0.13940269428321
  C   -1.69770854663447      0.68609721363276      0.20773776160568
  C   -1.66422867473040     -0.74090828742528      0.41463790835077
  C   -2.99754678039857     -1.17457919181797      0.17918256747411
  C   -3.67097056420920     -0.00802812312378     -0.13119644270204
  N   -2.85306374869840      1.14609669499127     -0.18674060984523
  H   -4.72472513122443      0.09262444181126     -0.34404119852267
  H   -3.42812219209007     -2.15959495965763      0.25441784746771
  C   -0.27234757041014     -0.70261235002652      0.23110001549010
  C   0.78365445100012     -1.61101256244174     -0.06984399613175
  C   2.07610771381999     -1.24301462843020     -0.20398669735243
  H   2.77667879000069     -2.03348085541618     -0.45057268165365
  H   0.53163342762081     -2.65522556789753     -0.20820852500457
  H   0.63819863500023      2.64439490699137     -0.18260597520966
  H   4.51354149668009     -0.77139103459454      0.35647851623240
  H   4.50290862511690      0.90813055128543      0.18112086943949
