27
Coordinates from ORCA-job ./opt_b97-3c_parallel
  N   -2.71481413127528     -3.35255107924182     -0.55784240422874
  C   -2.09983249031955     -2.39156614722795     -0.32765467875990
  C   -1.30588112346624     -1.25986588197452     -0.04552464405386
  C   -2.00624930563306      0.00631632002201      0.04275406441320
  N   -3.36269344242795     -0.10702136641075      0.10257796305120
  H   -3.80038252612556     -0.99182046613963     -0.08043409759126
  H   -3.93380229576724      0.70566886809883     -0.05031746619583
  C   -1.46665714465494      1.30515411741493      0.06656631636991
  C   -2.41061803064246      2.34980082061883      0.07570062141572
  N   -3.19199082474979      3.21416954849656      0.07237350097191
  C   -0.08648553021309      1.73189269614432      0.06154441634637
  C   0.94083516418904      0.86816038673073      0.29110130412760
  C   2.45778119179176      0.85728710939426      0.36910616953466
  C   2.39982463603521     -0.53865264500395      0.69583067662154
  N   3.53553542893934     -1.23007271908135      0.37710166649551
  C   4.31781056801067     -0.27842321281786     -0.13147940295505
  C   3.67176987655391      1.02242420239536     -0.24135279692241
  H   4.08015413481124      1.87824021035848     -0.75763652724182
  H   5.33514851434519     -0.49931805636290     -0.42580571927405
  C   0.99986190552730     -0.53246607948803      0.48122650627111
  C   0.04809511478726     -1.54386924120909      0.15930827320092
  N   0.54572562546079     -2.78835669330410      0.07630667273187
  H   -0.02528085735497     -3.57540139622078     -0.17860195987421
  H   1.54057998327940     -2.92316602967708      0.15387908777400
  N   0.19360841738305      3.04991799419627     -0.22113112505273
  H   1.08381678874184      3.37901568984680      0.11324903732741
  H   -0.55096959242588      3.71778558344251     -0.10705629090320
