27
Coordinates from ORCA-job ./opt_b97-3c_parallel
  N   -1.66519942958574     -3.14330537207633     -0.03375607625295
  C   -1.65101003081686     -1.97981836768308      0.02464002091139
  C   -1.58106918296097     -0.57347576939954      0.08146131312538
  C   -0.29957299026501     -0.03881206351383      0.14618012609913
  C   1.02122496969757     -0.50472664351361      0.18389467037947
  C   1.52986184402088      0.85963377031248      0.14005957889856
  C   2.92082555784675      0.79792428218657     -0.00434366662938
  N   3.81264131545496      1.83307151932951     -0.16936672635402
  H   3.51763417922545      2.71729221477436      0.20762675774308
  H   4.77064171628675      1.62507722829659      0.05757308728874
  C   3.25456142749010     -0.58500978675584     -0.04213864896163
  C   2.09398408985121     -1.39804105791954      0.05791179132735
  N   2.05960913672736     -2.76333007180279      0.10002593565276
  H   1.16202927045451     -3.19217378646410     -0.05395637666384
  H   2.82420863731814     -3.25614378710506     -0.32736878893616
  H   4.26175421515344     -0.96587198516212     -0.13629455002493
  C   0.20562691689368      1.37037022477447      0.10988706781981
  C   -0.50716589314584      2.54191044464629      0.02498668062635
  C   -1.90246000179938      2.59289043830762     -0.00450619583077
  C   -2.87037178019294      1.59857140759476      0.01172307112001
  C   -2.77976108208752      0.19550150144030      0.03976857012883
  N   -3.96006418935811     -0.49907831776766      0.06663197157934
  H   -3.94381152957288     -1.48472016331106     -0.13234427760776
  H   -4.79077199827897     -0.02202230917699     -0.23269976722044
  H   -3.88955771108882      1.96868769234256     -0.00465292085618
  H   -2.31477973461262      3.59460341854528     -0.05560590231850
  H   0.03028634824477      3.48072560100066     -0.02352243214364
