24
Coordinates from ORCA-job ./opt_b97-3c_parallel
  N   4.64336512938354      0.29064572426288      0.00014161984578
  C   3.47825212770324      0.28936963200681      0.00012284980019
  C   2.06977560018907      0.28998909596073      0.00016505249730
  C   1.47814975231216     -1.00726454069234      0.00064632778064
  N   2.30720494329543     -2.06112415247926      0.00105933465171
  H   3.30575387321794     -1.94582051167845      0.00105986454577
  H   1.94236992038078     -2.99814674095204      0.00135708590452
  C   0.07688821785890     -1.31465050887593      0.00072661787784
  C   -0.30600772048419     -2.67286993795849      0.00130074217875
  N   -0.57586783644230     -3.80375750980751      0.00177533555359
  C   -0.89886862562931     -0.34651394952062      0.00019796335012
  C   -2.31564176027750     -0.23117945137011      0.00008670583979
  C   -2.22478783394517      1.22431904827833     -0.00041837305874
  C   -3.52801337556478      1.69129883614959     -0.00014774109212
  N   -4.38087764409049      0.62594274361321      0.00045141451007
  C   -3.66880554008399     -0.53448321893927      0.00061477902262
  H   -4.17358752926472     -1.48647065556300      0.00110457444485
  H   -3.91504593520914      2.69708474228637     -0.00033702482061
  C   -0.79582273708995      1.13883843076522     -0.00029235960834
  N   0.18421824166148      1.99094428736099     -0.00035997618034
  C   1.47532374469001      1.59798169988276     -0.00012353035880
  N   2.31012084282625      2.64867540431964     -0.00021654338183
  H   1.89494674736063      3.56298988815967     -0.00057275463156
  H   3.31041598280216      2.55742744629084     -0.00015112117120
