22
Coordinates from ORCA-job ./opt_b97-3c_parallel
  N   -4.02274497273070     -0.42166987113530     -0.12950616987729
  C   -2.64070354732363     -0.40195214121912     -0.02832134375108
  N   -2.08192641859547     -1.58423124421212     -0.02989004037386
  C   -0.74914197811196     -1.85489885732248     -0.05682109134221
  C   0.26385914014452     -0.97166617474250     -0.19804774933550
  C   1.76371627882428     -0.85716987665701     -0.22353227674976
  C   1.68568526646976      0.57447565332398     -0.41406084877310
  C   2.99234126801203      1.04976567807585     -0.10113741244325
  C   3.69287738960105     -0.09448271312190      0.22044264016337
  N   2.91102427250653     -1.27815725546205      0.22170294565012
  H   4.74006000746991     -0.16279045223540      0.47418109399438
  H   3.39671497258442      2.04821833905858     -0.14704600712054
  C   0.29284826158567      0.46629446731256     -0.25788236312404
  C   -0.79821863537393      1.36861213320693     -0.01377595425309
  N   -0.45470880086467      2.67872598478171      0.16323472954202
  H   0.44883423218477      2.96195036477066     -0.17369798272281
  H   -1.17012188955402      3.38100888161167      0.09903808456248
  C   -2.09359286189848      0.93360946706707      0.04485250268651
  H   -2.84002868755614      1.71488950790884      0.15299766910032
  H   -0.50819886588743     -2.90597676081272      0.04667080614709
  H   -4.53445194438686      0.32983866766925      0.30022210807027
  H   -4.41317817139965     -1.33376271646651      0.04278275744994
