25
Coordinates from ORCA-job ./opt_b97-3c_parallel
  N   -2.51284849264170     -3.30071985665455      0.03596329981771
  C   -1.50391347646715     -2.72460972231892      0.00397329207080
  C   -0.32829937381517     -1.93753177277001     -0.02825146202912
  C   -0.50284274849523     -0.56523196846520     -0.07498679897914
  C   -1.53851339838011      0.38790577954617     -0.09954597014972
  C   -0.57326671525007      1.47658906967375     -0.07493245083276
  C   -1.31936026127881      2.64568229032756      0.01837248055292
  N   -2.64423517858701      2.34986628321557      0.04707024626062
  C   -2.80221667219766      0.99049155278570     -0.01821165953591
  N   -4.03083482557310      0.43630007537397     -0.04447409046178
  H   -4.80979681011346      1.02081055307562      0.20211205867728
  H   -4.12666985784029     -0.55164328022790      0.10805804130910
  H   -0.99767475494293      3.67356975259768      0.07425019206219
  C   0.49629741303720      0.53940430189622     -0.06541503438506
  C   1.87653795085301      0.52536083917283     -0.02599464458044
  C   2.55163226599949      1.76654591794814     -0.00289997538279
  N   3.15435374300697      2.76039912578100      0.01722380304987
  C   2.67132810694542     -0.66570095990337     -0.00792897886268
  N   4.01227036372486     -0.50037273562207      0.00375740548933
  H   4.62675604177469     -1.29026161216330      0.05318574926429
  H   4.42681384562793      0.41469016508762      0.02571869102048
  C   2.20401434318096     -2.00181375999660     -0.00088744989789
  C   0.94173707221168     -2.54752208036012     -0.00204806552926
  H   0.92178844769656     -3.62951977314718      0.02202928310047
  H   3.00022792832393     -2.73660364635261      0.01556518945151
