24
Coordinates from ORCA-job ./opt_b97-3c_parallel
  N   -2.61601756029628     -2.62407202259704     -0.09798871793637
  C   -1.95592126390271     -1.43136474664465     -0.04910897244060
  N   -0.60957639101181     -1.60601911377253     -0.03464532235418
  C   0.15752239756287     -0.54936657863472     -0.02611883866039
  C   1.54991622781089     -0.29228373257649     -0.00345425673531
  C   1.31122794785334      1.15291231076775     -0.00621742391240
  C   2.53735061239621      1.80212608538145      0.00495092717147
  C   3.51342599421989      0.78243712574264      0.01294519722237
  C   2.92427423447632     -0.51612753928192      0.00541336950573
  N   3.60855117915337     -1.71776063468556      0.08036179418992
  H   3.08438219385766     -2.50894247606860     -0.25486475475680
  H   4.53419226411278     -1.69949540902091     -0.31593713989085
  H   4.58106761254461      0.95714199481405      0.02888790985361
  H   2.74401212959489      2.86082094484540      0.00238824692070
  C   -0.09024679169518      0.94595088478565     -0.02729604576896
  N   -1.16456731794630      1.69230890369666     -0.03782640785731
  C   -2.37516788572012      1.09144819553033     -0.05170479986689
  N   -3.39257020329187      1.99825299370783     -0.10189293028451
  H   -3.13381859029142      2.95061816907596      0.08531188513714
  H   -4.32598128222824      1.72184854030998      0.13902848542264
  C   -2.73558276191862     -0.26776880618091     -0.05070804841138
  H   -3.80451923064447     -0.44633022698796     -0.09157688665685
  H   -2.05922102974308     -3.43554564578203      0.10270415870211
  H   -3.58905548179275     -2.66848711712437      0.14105804960709
