25
Coordinates from ORCA-job ./opt_b97-3c_parallel
  N   5.13238026062488      0.43002239134261     -0.15996277674710
  C   4.01729515064791      0.10604896517222     -0.10299585154559
  C   2.63904110374017     -0.20815208670917     -0.02952751091766
  C   1.75100631872365      0.91095268683826      0.06087694355962
  C   0.39916435513265      0.71412605293091      0.27154307222866
  C   -0.85606224827914      1.51610249334178      0.42727081780167
  C   -1.58929894928967      0.29948103430759      0.56094470383796
  C   -2.92670099427242      0.53737130245238      0.14722847226922
  C   -3.93050903638686     -0.43693219274484      0.06653802231504
  N   -4.68564182640472     -1.31927046095326     -0.01336204959996
  C   -2.99637356641871      1.90221340004927     -0.18793392433097
  C   -1.70294028414358      2.48888885636327     -0.08236866260237
  H   -1.46717858224594      3.49949205673062     -0.38107464928176
  H   -3.90057582912579      2.42325837653457     -0.46017034847654
  C   -0.38499979094546     -0.45269202914895      0.33652362047534
  C   -0.03652719559482     -1.80310933934087      0.04886407579341
  N   1.20076864614435     -2.27005794122062     -0.05705496348433
  C   2.33116192683758     -1.57482158048442     -0.04549235791536
  H   3.20799413422781     -2.21183476350828     -0.08610801573033
  N   -1.04220351925149     -2.68352086109374     -0.10109024340224
  H   -0.82116026543523     -3.64179553132264     -0.30588598136814
  H   -2.00701613082718     -2.41129597642482     -0.02668267152420
  N   2.22273621706152      2.18006807598975     -0.08862678797123
  H   1.64805503645966      2.92906659690305      0.25569833996227
  H   3.21524187162079      2.33862541559527     -0.04265802004540
