24
Coordinates from ORCA-job ./opt_b97-3c_parallel
  N   -3.65469572564124     -2.57020188165004      0.25125841209957
  C   -3.04927529701281     -1.57408713731368      0.22802405863467
  C   -2.33519796711561     -0.37849183818353      0.18442543124443
  C   -0.94382163548134     -0.11767284802640      0.28445546652169
  C   -0.81577046426336      1.31995170560163      0.10692380940724
  N   -1.92551525380408      1.95373945987596     -0.11063558607790
  C   -2.88673535541370      0.90959813922461     -0.02732791553478
  N   -4.16998694114711      1.23507945442765     -0.16617806666114
  H   -4.41148286483539      2.18175340911145     -0.39532827974568
  H   -4.88825990489140      0.53355538002824     -0.16338825128102
  C   0.67397808498937      1.21740514396456      0.07654822632293
  C   1.81215917806779      1.90972773018219     -0.06453696690624
  N   3.07851068185525      1.38797725938368     -0.02453159307682
  C   3.39285289599043      0.12472277472343      0.02619537859470
  N   4.71437590151959     -0.15047712306861      0.24626743166089
  H   5.04336661001105     -1.06002456242046     -0.02100035742424
  H   5.34784956751755      0.62405120442305      0.15826592519563
  N   2.70078154033327     -1.07993004899255     -0.12330566967524
  C   1.42244979363864     -1.26834897972318     -0.02828211049835
  C   0.43305415764303     -0.22754532696889      0.18895741545500
  N   0.93545897351703     -2.51996031844369     -0.15436800733806
  H   1.56873987238014     -3.26670334758097     -0.37932337524479
  H   -0.05206896214213     -2.69371296841568     -0.19837402599783
  H   1.77307012298446      2.98478074594090     -0.19187582097462
