21
Coordinates from ORCA-job ./opt_b97-3c_parallel
  N   4.35068599027601      1.46973597334492     -0.52144910223687
  C   3.45657755653386      0.77216101202096     -0.26728514468248
  C   2.39051169867150     -0.08798141403674      0.03313450996682
  C   1.07303072180652      0.17819437843856      0.32675146180137
  C   0.44741877168463     -1.08983308884516      0.43042806249653
  N   1.28566112098810     -2.15135386290248      0.25370770979059
  C   2.45603709473714     -1.55975250644078      0.04510259477390
  H   3.36094635693912     -2.13013084556692     -0.10393443610643
  C   -0.83115115514459     -0.50682990586930      0.27492083572432
  C   -2.16377731746585     -0.93523747277696      0.01941740594993
  C   -3.18693277308085     -0.01176227397489     -0.08416623832163
  C   -3.15344681978320      1.40837605817905     -0.02306099741767
  N   -2.19873785681471      2.30102163257107      0.03736247679572
  C   -0.86511779187487      2.04265599196312      0.09923960954455
  C   -0.28473705747674      0.82328951176352      0.23680666166908
  H   -0.23037979465892      2.91853201894492      0.04552719158834
  H   -4.14601737144291      1.85055816135892     -0.06363271567940
  H   -4.18334967501130     -0.41860191027819     -0.22333950550016
  N   -2.36064234744795     -2.27469917754733     -0.05861074427359
  H   -1.56373373570313     -2.88498082580223     -0.10938114673952
  H   -3.23190456213180     -2.64284332094405     -0.39365678004340
