24
Coordinates from ORCA-job ./opt_b97-3c_parallel
  N   -1.69591992515919     -3.31043000480020     -0.08471085224850
  C   -1.80371691663196     -2.15339530142533     -0.03880414515861
  C   -1.79973266662179     -0.73878148599303      0.01508989480899
  C   -3.00797013662223     -0.01163385135363     -0.05444251569290
  N   -3.25798051567355      1.28749703494465     -0.05486183346712
  C   -2.39673403713765      2.31236869118678     -0.01378523635650
  C   -1.00519602439421      2.39746007363578      0.04382159046810
  C   -0.16860444223070      1.30380422737883      0.11078844720000
  C   1.18781699428937      0.90994741628455      0.16565006454898
  C   0.80256048097521     -0.48983206473910      0.18141519336704
  C   1.95784967467372     -1.28745948631278      0.08933800500271
  C   3.04774934458731     -0.37700081098354      0.02976940101072
  C   2.59234792613225      0.96779432555597      0.05877934049629
  N   3.39132068349452      2.07222795101247      0.04582510725860
  H   4.32449463897397      1.96911348433836     -0.31277158552554
  H   2.95864089329955      2.94726962997995     -0.18994766231526
  H   4.08653452109641     -0.66751145103575     -0.02757084997656
  N   2.02478665135718     -2.63779185245892      0.10503791046651
  H   2.86816462129168     -3.09628610772109     -0.18775940515534
  H   1.17348494355354     -3.15908005043108     -0.01977696437808
  C   -0.54760780194243     -0.14504316348594      0.11729970425830
  H   -0.57832472152675      3.39392979600277      0.03994802194760
  H   -2.90483960315836      3.27320766815061     -0.04073775272742
  H   -3.90169689152627     -0.62576937393027     -0.12406424413188
