24
Coordinates from ORCA-job ./opt_b97-3c_parallel
  N   3.87406399745746      0.05065218096747     -0.26258573237480
  C   2.52077278920260     -0.02308694816531     -0.05294818259903
  N   2.04292861246274     -1.25228322057798      0.01118589072245
  C   0.74772765256759     -1.61635456317450     -0.00301589818445
  C   -0.31131566384361     -0.77859948184037     -0.29684563330627
  C   -1.80179069332176     -0.75818571378763     -0.46316978006741
  C   -1.75025665675223      0.66928517519840     -0.69080963239179
  C   -3.00510532189204      1.22398407852494     -0.30820937999236
  C   -3.78719123012044      0.16216120002488      0.12231823438070
  C   -3.01594426619077     -1.05643942515026      0.11053622101352
  H   -3.34474450024203     -1.99523523454280      0.53393883381826
  H   -4.83236272979175      0.22544725831889      0.38992403205067
  H   -3.34336986368155      2.24535179195575     -0.41143632403864
  C   -0.34452895734947      0.62084754475208     -0.42662384559220
  C   0.70013066097507      1.52032900073479     -0.02319967302339
  N   1.96613012581590      1.20855750090332      0.09646602255278
  N   0.33741595433594      2.80307953566667      0.21768660559869
  H   1.01206120435313      3.40634615933712      0.65452731629908
  H   -0.63517595036029      3.01145924604152      0.35219870963429
  N   0.50542079109391     -2.93245461808252      0.31332340153223
  H   -0.36066061473915     -3.31569010907839     -0.02650900613730
  H   1.30230113769712     -3.53777717863900      0.20832225012817
  H   4.31464080731802      0.91237634554125      0.00505196041915
  H   4.38902040920553     -0.79428363952830     -0.08931055034248
