19
Coordinates from ORCA-job ./opt_b97-3c_parallel
  N   3.93094120968700      0.14612875488459     -0.25990865066248
  C   2.61384625815750     -0.03588206662577      0.04441125507091
  N   2.01187640970626      1.19099824364814      0.33957176533645
  C   0.76556769237223      1.47634114578402      0.19754992943811
  C   -0.25324034687985      0.58712312634950     -0.28567437780696
  C   -1.63396046246650      0.58582719709683     -0.51792586114430
  C   -1.68507402118046     -0.84133254771110     -0.31498301532835
  C   -2.96214433431227     -1.10315862939322      0.07433736764643
  C   -3.63662842214419      0.19630748538259     -0.03546020460765
  N   -2.84189813543099      1.20911453809902     -0.35674375837915
  H   -4.69197287497776      0.36150962399975      0.13776380932137
  H   -3.41168850739368     -2.01150329062473      0.44496952032231
  C   -0.19059149411296     -0.86134818507575     -0.19239741777060
  C   0.86764619885772     -1.65837616580275      0.07487274513787
  N   2.17285694211163     -1.26255502787450      0.09284760057751
  H   0.71658032057919     -2.71616192397408      0.24997155176991
  H   0.46160550892426      2.47130536802541      0.51398688399775
  H   4.49816184430779     -0.68336298828377     -0.28029233821552
  H   4.36200916989502      0.99187981979582      0.06871575859638
