20
Coordinates from ORCA-job ./opt_b97-3c_parallel
  C   -3.14413105449901     -0.00026116105109      0.00182071444011
  C   -2.54934641620269      1.26175561848292      0.00169202440129
  C   -1.20820280593110      1.63009074414971      0.00138632143233
  C   -0.15415823399349      0.73045365518562      0.00119861431029
  C   1.28446970390082      0.71827067079517      0.00090238425330
  C   1.28448897872140     -0.71864557189292      0.00085987952300
  C   2.60079419139954     -1.17090252673975      0.00024172773061
  C   3.40002777436447     -0.00016225922989     -0.00001862525877
  C   2.60075408621952      1.17056349426523      0.00031064825781
  H   2.97622498954602      2.18218257285165      0.00015239469304
  H   4.48006928577653     -0.00014362003333     -0.00043982071652
  H   2.97628908733336     -2.18251244811721      0.00002425435623
  C   -0.15412754171794     -0.73087176946381      0.00115478739640
  C   -1.20814848664666     -1.63055029393878      0.00128743094198
  C   -2.54929630516012     -1.26226450886476      0.00161507703780
  H   -3.24983741273440     -2.09060777862856      0.00173123851376
  H   -0.97472500366176     -2.68734677690079      0.00114728545738
  H   -0.97481997553044      2.68689599974441      0.00131043495617
  H   -3.24991390639846      2.09007647412768      0.00185890597219
  H   -4.22637369878560     -0.00028394614147      0.00208066900164
