26
Coordinates from ORCA-job ./opt_b97-3c_parallel
  N   -2.08684131518856     -4.00408756134076      0.16026330814763
  C   -2.25227407104076     -2.85325767177211      0.19118863432142
  C   -2.31180020882192     -1.45198691499946      0.21332540371008
  C   -1.21289102220539     -0.58794596805738      0.51469138902375
  C   -1.64196070908715      0.76256021288466      0.39655889754120
  C   -2.96372930567695      0.77102054905485      0.00222010452481
  C   -3.76416607499059      1.87008010242208     -0.35320414150513
  N   -4.42511840962842      2.77768684023025     -0.65070433185428
  C   -3.39069689348051     -0.62036843321487     -0.05655422744309
  H   -4.39692010279917     -0.94090071402145     -0.26869067739207
  C   -0.20678653363858      1.20939439563208      0.29988381059881
  C   0.56275942133875      2.31164816356334      0.10235380376775
  N   1.90584981826416      2.35799790354995      0.06945861124583
  C   2.76177475219229      1.35963975802098      0.06880330816970
  N   4.05988144092973      1.74381077392357      0.20418963894668
  H   4.23622572487584      2.72831741550463      0.11175754680103
  H   4.82153679686004      1.11482857528197      0.02532951433046
  C   2.55546201059872     -0.08168366164544     -0.08381332225417
  C   3.70246723429514     -0.85281131360618     -0.35934636935492
  N   4.63259532037914     -1.51623336408411     -0.58206335109767
  C   1.37131385075484     -0.81644096129005      0.04840860393860
  C   0.13277355432493     -0.17537324650798      0.34356304555774
  N   1.33729758751003     -2.15155007902231     -0.09489247115899
  H   2.16517367066015     -2.68224833051767     -0.30458133112295
  H   0.47455331936417     -2.65918387088266     -0.00308383426378
  H   0.07667123001046      3.27230924800251     -0.01996295346574
