24
Coordinates from ORCA-job ./opt_b97-3c_parallel
  N   6.20852417462952      0.05972767626077      0.00004486205129
  C   5.04966502488714      0.14260623531850     -0.00028207786210
  C   3.64643719820781      0.24264423872435     -0.00016290684736
  C   2.76267020334687     -0.88447817370806      0.00032076193786
  C   1.49887567846537     -0.33783868601271      0.00046063756681
  C   1.60126870541471      1.11731954542275      0.00003099330307
  C   2.93209202344719      1.47954117591385     -0.00038587164285
  H   3.38680089303626      2.45552961816379     -0.00074636067561
  C   0.17614140968723      1.21895613601792      0.00024786081097
  N   -0.69696342756268      2.19997178840813      0.00012745578211
  C   -2.00186055324916      1.93393169139577      0.00046796611762
  C   -2.76256784190847      0.75644725000246      0.00096818216097
  C   -4.16366125307176      0.96426387314695      0.00125710063739
  N   -5.32174210546467      1.06834425189784      0.00165308699462
  C   -2.36190298502629     -0.63031531636432      0.00124937599034
  C   -1.01543491733021     -1.10437457422254      0.00108883454084
  C   -0.80232997868603     -2.49878971364877      0.00139851362224
  N   -0.67603654808223     -3.65447343642706      0.00140878532972
  C   0.07701419663030     -0.25755737694011      0.00067753701297
  N   -3.33113416557955     -1.54538128917105      0.00169963148806
  H   -3.11303326593634     -2.52834367992974      0.00188982021595
  H   -4.30163710117200     -1.27657573030307      0.00183978307246
  H   -2.61340778799363      2.83057319121994      0.00034102646804
  H   3.07497437321077     -1.91498552866542      0.00055008512476
