22
Coordinates from ORCA-job ./opt_b97-3c_parallel
  N   -5.38919101966878     -0.19390776800802      0.00123629324343
  C   -4.23449014532748     -0.05843419848518      0.00098883606387
  C   -2.84009152590306      0.10913164671706      0.00071940322968
  C   -2.18156182369238      1.37682551958299      0.00012020519693
  C   -0.83064683871150      1.07918984267455      0.00006366597830
  C   -0.65827037747359     -0.35422320714548      0.00060505242978
  C   -1.89342221527683     -0.96789519567267      0.00100332603897
  H   -2.14902347315030     -2.01432710128669      0.00144051426919
  C   0.76748573756273     -0.18536271240548      0.00023016534968
  C   1.92224856885900     -0.96455926103128      0.00026880343289
  C   1.76993366206418     -2.37264543446410      0.00082764524886
  N   1.62803613312501     -3.52525222100509      0.00116225832643
  C   3.22468402104644     -0.42361222709293     -0.00021566953518
  C   3.64305518749087      0.89331190272794     -0.00082670781060
  C   2.89848209327158      2.08333065306413     -0.00115873863371
  C   1.53010639458764      2.28691913501578     -0.00095238252811
  C   0.59423311287363      1.26101991837070     -0.00031659564640
  H   1.16644986357017      3.30570054737687     -0.00130336479559
  H   3.49799424869392      2.98635985528664     -0.00165782542599
  H   4.71629387328769      1.02805450424064     -0.00110470121550
  H   4.01719627196811     -1.16141995133348     -0.00008999024234
  H   -2.68628733999704      2.32882259197310     -0.00019274607460
