29
Coordinates from ORCA-job ./opt_b97-3c_parallel
  N   -5.65667846851228     -0.11553939729791     -0.03387798387162
  C   -4.49181573607247     -0.06248328449011     -0.01407435543543
  C   -3.08673812652138      0.00445075006616      0.00668811520597
  C   -2.55036768163765      1.32904919100637      0.01693148021325
  N   -3.44600996212056      2.35108681561786      0.05388624644803
  H   -3.12515932895370      3.28600756184705     -0.11091872284395
  H   -4.42640043001126      2.18152488495431     -0.08748467730250
  C   -1.19341940410762      1.70944384069318      0.02098911026902
  C   -0.15834085216446      0.82476715744642      0.02638130454919
  C   -0.17949593630187     -0.68696585635215      0.02183799520022
  N   -1.12208700806819     -1.59165375457752      0.01407958248235
  C   -2.42621215269813     -1.27220690152294      0.00862397277509
  N   -3.21591450209953     -2.36948458422707     -0.00905223386685
  H   -2.75880497241822     -3.26098476683522      0.03284712027933
  H   -4.21691979503782     -2.32328235074683      0.03923478270634
  C   1.22918332337960     -0.69781898873619      0.02390198390436
  C   1.25761147701200      0.77085545633256      0.02719049311303
  C   2.57656688532240      1.19426035698879      0.01035486489050
  N   3.10591983906343      2.45633662002490     -0.06530325434332
  H   4.07478805567383      2.54335529905550      0.19616444464027
  H   2.53449433370917      3.19517855168268      0.30538069260594
  C   3.36720413940156     -0.01398436232380     -0.00885136010677
  C   4.76112598665901     -0.04001623720910     -0.02880483570800
  N   5.92722051921839     -0.05874933974892     -0.04449644209152
  C   2.53380454012660     -1.18308690538414     -0.00164112419566
  N   2.99011365117034     -2.46736552972996      0.05262621336936
  H   2.34671201890632     -3.18234252167501     -0.23692779086525
  H   3.93912992969018     -2.62654463834287     -0.24243804251882
  H   -0.98048003340771      2.77204055918393      0.02702448849748
