23
Coordinates from ORCA-job ./opt_b97-3c_parallel
  N   -4.59282915762257     -2.36972660891363      0.00088344449926
  C   -3.62583310341086     -1.72912732718696      0.00057393078657
  C   -2.43021987706829     -0.95196200843655      0.00036153801667
  C   -2.63481096439902      0.43368140325943      0.00023219364336
  C   -1.69719701697103      1.48091178168738      0.00005468104189
  C   -2.27127573659129      2.78631950445903     -0.00002949165866
  N   -2.73657978502914      3.84874843193062     -0.00020132025904
  C   -0.29722048250858      1.44397693987123     -0.00005821487453
  C   0.43747707989900      0.27464011868356     -0.00003766257486
  C   1.80266210664146     -0.15547358074553     -0.00011161934155
  C   1.40279544854624     -1.52353978404918      0.00005443002992
  C   2.53668801843963     -2.33723974420206      0.00016897419650
  C   3.63817343286591     -1.45805793328791      0.00005979816675
  C   3.20633336844578     -0.09782092841167     -0.00011064693959
  C   4.03553822918546      1.03269147410650     -0.00025328195092
  N   4.71341419582316      1.97690489793080     -0.00056530115609
  H   4.67389855134774     -1.75686421738777      0.00009429849230
  H   2.60283779348962     -3.41340348884769      0.00031038798820
  C   0.01643508187307     -1.12845910831178      0.00013486675495
  C   -1.23766570827151     -1.69533988487351      0.00032561135183
  H   -1.32091539224352     -2.77253307638333      0.00045921139181
  H   0.23113638400518      2.38638388976367     -0.00017459317812
  H   -3.66835926744644      0.74518108904536      0.00029011787333
