26
Coordinates from ORCA-job ./opt_b97-3c_parallel
  N   5.10599850855552      0.47166054694920     -0.00079343360008
  C   3.94871934663117      0.32130609406452      0.00034292363004
  C   2.56779888231634      0.13991805710827      0.00230927547933
  C   1.91112805410717     -1.14173743685715      0.01006646518309
  C   0.54657344983579     -0.86540921683312      0.01055852167051
  C   0.35786454496291      0.58205492031534      0.00743576160845
  C   1.60257480947390      1.20725585453529     -0.00111022227161
  N   1.91414934380030      2.53018253022779      0.05407452428944
  H   2.84644640195557      2.79762049615205     -0.21393899073577
  H   1.19776256552114      3.17716203356426     -0.22275943130919
  C   -1.04666682510199      0.41905595371380     -0.00862374287571
  N   -2.07768950556170      1.22347845031874     -0.01836026400626
  C   -3.34177761051431      0.75917495924823     -0.03258117040621
  C   -3.83712445277228     -0.56812555849300     -0.04171527340484
  C   -3.17319572896536     -1.78005686334807     -0.03708646733009
  C   -1.80366352351819     -2.07151252690499     -0.01933454238509
  C   -0.85251316821655     -1.08626076680070     -0.00340226542825
  H   -1.50456553555990     -3.11228345141251     -0.02207082395914
  H   -3.82744222006025     -2.64476382899147     -0.04806018452823
  H   -4.91835027462623     -0.63935090485237     -0.06870011883891
  N   -4.26908130121721      1.76202298270854     -0.07962063641740
  H   -3.92630115057844      2.68459183630931      0.12197343500192
  H   -5.22107513560805      1.56971677321449      0.17159803728300
  N   2.56557136927196     -2.33793108414673     -0.05522552412950
  H   2.06298545287992     -3.14486885261918      0.26883924761641
  H   3.53862635628880     -2.33566193507051      0.20316077516410
