23
Coordinates from ORCA-job ./opt_b97-3c_parallel
  N   -5.18711781434173     -1.06944840104796     -0.01043562389955
  C   -4.04182701138810     -0.88038712579908     -0.00619222295567
  C   -2.63420489095447     -0.66099656725235     -0.00125512641999
  C   -2.24555177897287      0.68408658797778     -0.00773264030678
  C   -0.96201821901016      1.24673396541430     -0.00560011824778
  C   -0.84708648537888      2.66250986616297     -0.01251991583755
  N   -0.72447993043963      3.81637288877409     -0.01852284464300
  C   0.21631173869991      0.51107231455161      0.00225960285190
  C   1.61873701268589      0.70473354071196      0.00646038746793
  C   1.83475474049673     -0.72525555660880      0.01545918775553
  C   3.23182252890456     -0.89004049793369      0.02487448138804
  N   3.84050943040985      0.34435273675155      0.02571788955018
  C   2.88491832751388      1.29606528162239      0.01541722043368
  H   3.16072566478112      2.33894404430335      0.01235034377809
  N   3.99052064347931     -1.99760022142590      0.06467352558605
  H   4.98227721265159     -1.89183406097210     -0.05896171125574
  H   3.59018843387120     -2.89906991057041     -0.11289191192407
  C   0.43354348346213     -0.96224234159809      0.01082555332964
  C   -0.47697041973354     -1.99807052204263      0.01597843709891
  C   -1.85275705006990     -1.83637785508486      0.00997357671033
  H   -2.42948701515250     -2.75199871522948      0.01471875108565
  H   -0.09928207030783     -3.01270810598082      0.02646508742575
  H   -3.05904009610655      1.39610614477620     -0.01506730397159
