26
Coordinates from ORCA-job ./opt_b97-3c_parallel
  N   -1.41708684320464     -3.64798368115328      0.03781801738862
  C   -1.30835833629563     -2.49021867623347      0.00136237755982
  C   -1.23379808710145     -1.08153123621134     -0.03514446626929
  C   0.01507947484449     -0.49663004276752     -0.04195647564602
  C   1.38170788666139     -0.88390500486830     -0.02713401089921
  C   1.79562694688130      0.50798306135431     -0.04104510514504
  C   3.18762095206831      0.48865163806992      0.00459891438496
  N   4.10368263623553      1.50958630336378      0.07047112849906
  H   3.84006065951638      2.36310169825002     -0.39095372291203
  H   5.04118659370731      1.21491553203380     -0.15149526383663
  N   3.62022106397422     -0.81200564757943      0.04983523239872
  C   2.54661104229845     -1.64021160584058      0.03686929290070
  H   2.68488761792514     -2.70920381003543      0.06826972555264
  C   0.42862689958047      0.93440631886502     -0.05525809535093
  C   -0.31162925127335      2.07656501352082     -0.05010069201346
  C   -1.72468306776140      2.11267659278374     -0.04283734410655
  C   -2.63007861533929      1.04366416219838     -0.04239082915604
  C   -2.46607272364663     -0.34283599843716     -0.04856359190448
  N   -3.60332153817392     -1.09094060196687     -0.10042879384087
  H   -3.55409990719119     -2.08116812921149      0.06559497449049
  H   -4.48708598678023     -0.65546663153001      0.08475259568968
  H   -3.66976207935076      1.35347564344904     -0.06647618682536
  N   -2.28069878099830      3.36875094425981     -0.08525623842363
  H   -1.69955061429709      4.14234736499157      0.18290835972809
  H   -3.24382127898688      3.46894571046544      0.18095686849515
  H   0.20873079230749      3.02716531682910     -0.04992418545837
