25
Coordinates from ORCA-job ./opt_b97-3c_parallel
  N   4.15267591537355      1.72055268164239      0.14224827976416
  C   3.14378338191009      1.13983517241475      0.07494081148371
  C   1.92528653449527      0.44390665935525     -0.00034228701035
  C   2.01679204463763     -0.96891588657691     -0.02646590892249
  N   1.06261740256395     -1.91688820488938      0.09691722991821
  C   -0.23053139747003     -1.79920100105727     -0.05390670866310
  C   -0.91906440763766     -0.61094355539262     -0.48122765397994
  C   -2.26809340126518     -0.25378159298104     -0.73546137796606
  C   -1.95007400652009      1.12017738763676     -0.45953841361225
  C   -3.06973456400846      1.62069004985353      0.15105163622952
  C   -4.03872322434030      0.53960870765780      0.08800821588738
  N   -3.54279529908280     -0.60398188849494     -0.38698028213326
  H   -5.07587957879399      0.60805846316880      0.38891495511414
  H   -3.22699144432218      2.57042054707433      0.64040051128746
  C   -0.48621747194257      0.72250668331625     -0.34077725105063
  C   0.73941863563155      1.25960656368119     -0.06198054337102
  N   0.84263459344009      2.60307272602116      0.21023106478884
  H   1.75397120902088      3.02367835710258      0.13211051583702
  H   0.09843480482258      3.17477916670710     -0.15227333050896
  N   -1.01163535144023     -2.86721740084173      0.18586347865199
  H   -0.60196409538135     -3.71343650305093      0.53886729289548
  H   -2.01282581984090     -2.77918634398667      0.14340291090956
  N   3.25486262432321     -1.52721647900710     -0.15219683627064
  H   3.32270331892641     -2.49501702198974      0.10532948036755
  H   4.07754900520056     -0.96292438466360     -0.03075997594630
