23
Coordinates from ORCA-job ./opt_b97-3c_parallel
  N   -5.04548111480475     -0.69190122061274     -0.00633722647849
  C   -3.98474695964085     -0.21659998497953     -0.00373978280653
  C   -2.65997119941898      0.28435879245564     -0.00064698132071
  C   -2.53764436369723      1.70662548603906      0.00060910132023
  C   -1.44143859373981      2.52577428817110      0.00212684331194
  C   -0.06434966408962      2.19241055088731      0.00356856272740
  C   0.39414852104856      0.91811822275424      0.00524381417855
  C   1.68349913547460      0.15217537090586      0.00615292762929
  C   0.95033396234364     -1.05473082090455      0.00765700943036
  N   1.70874922735381     -2.18362107663536      0.00346301723740
  C   2.94558464228654     -1.69261304559668     -0.00029039753974
  C   3.00811980571571     -0.21890112298778      0.00040158842544
  C   4.18061895288635      0.54940485936125     -0.00488783219880
  N   5.15996626040975      1.17519863113887     -0.00931590161827
  H   3.81094843221980     -2.33792632445465     -0.00359958547565
  C   -0.28481807421650     -0.35774083860315      0.00490667919137
  C   -1.65969981207676     -0.70121435517491      0.00056887385657
  N   -1.94032448287949     -2.02187439921082     -0.00158694482642
  H   -1.19512705556082     -2.69477082378674     -0.00150849176760
  H   -2.88608176318490     -2.36076256261998     -0.00551637943661
  H   0.65316840588055      3.00104705285928      0.00337348266957
  H   -1.66301461969239      3.58523946729938      0.00204641817183
  H   -3.49324555991722      2.21253461279492     -0.00039001278110
