20
Coordinates from ORCA-job ./opt_b97-3c_parallel
  N   4.07412237623698      0.03089363038966     -0.05843296908762
  C   2.69071071577087      0.07797133806846     -0.05901509090921
  N   2.16082551475242      1.26357773299206     -0.03112705073660
  C   0.83431803175110      1.58812770420634     -0.04692910314401
  C   -0.20677143300715      0.74705135962221      0.14206204551805
  C   -1.69800580588826      0.68561049835591      0.20961228271611
  C   -1.66437354926082     -0.74153987777540      0.41498056391995
  C   -2.99753355484073     -1.17513190922688      0.17886472921003
  C   -3.67109568771239     -0.00830566989898     -0.13034329747386
  N   -2.85330332885352      1.14600521854634     -0.18452175206501
  H   -4.72481060865692      0.09247948153365     -0.34332733318699
  H   -3.42800014293524     -2.16028232198982      0.25304167516274
  C   -0.27238645889076     -0.70284824511542      0.23237693061575
  C   0.78405227141256     -1.61080348031728     -0.06843660115821
  C   2.07652320823990     -1.24255437211994     -0.20161404109958
  H   2.77743014880562     -2.03269690339598     -0.44826894685624
  H   0.53225106913297     -2.65498377336267     -0.20750784605874
  H   0.63808990014221      2.64467414642736     -0.17772814360454
  H   4.50274393085721      0.90874946452661      0.18628290369321
  H   4.51357011804391     -0.77091188786624      0.36032960124479
