27
Coordinates from ORCA-job ./opt_b97-3c_parallel
  N   3.96998943143369      2.48379802664928      0.16234677107232
  C   3.24249921474667      1.58206411182271      0.05137285399198
  C   2.42530993381677      0.45232698441789     -0.06726635404409
  C   1.06488071598931      0.33529144442535     -0.18476349886125
  C   0.71106389597828     -1.04997449609059     -0.17742761584518
  C   1.87918785187979     -1.83848958029652     -0.06162275082374
  C   2.93738412883460     -0.93652289536811     -0.01429264925359
  N   4.28163587672734     -1.20381548884253     -0.00249429619772
  H   4.87490244689718     -0.46899745213493      0.34742074013636
  H   4.55069635804427     -2.11407630523280      0.32889706213488
  H   1.97927805851304     -2.91240253832015     -0.03900507997663
  C   -0.65617107721996     -0.68386711963374     -0.07857109196350
  C   -1.91048653072911     -1.34873903870628      0.06182252550395
  C   -3.10771777057100     -0.68375580749671      0.12936344709943
  C   -3.43451340986244      0.71153079105437      0.08406042247448
  C   -2.58435964094112      1.78885563314053     -0.00082514707911
  C   -1.16592935748411      1.82221941358677     -0.05853505417116
  C   -0.37369735730748      0.72781223378634     -0.11669005508222
  H   -0.69746551488383      2.79698653205554     -0.07818094246452
  H   -3.06438766916569      2.76112079923068     -0.02050591421830
  N   -4.81409686895245      0.95577708161529      0.22114908824512
  H   -5.39787984029183      0.30884718429094     -0.28641692922359
  H   -5.07758236648642      1.90176346436105     -0.00424979371917
  H   -3.97401039711481     -1.32593845938250      0.26183685990751
  N   -1.84143951383020     -2.72265637893401      0.19756544252727
  H   -2.68791131567997     -3.23593406852944      0.01932171647586
  H   -1.03167764714051     -3.15241844966840     -0.21742793434535
