21
Coordinates from ORCA-job ./opt_b97-3c_parallel
  N   -0.31784859815754     -2.60150624963865     -0.01980172619587
  C   -0.74385538269354     -1.31390712324090     -0.11612853638992
  C   0.25797118645207     -0.36055781752386     -0.50196921750405
  C   1.64138190271077     -0.42737583051672     -0.73573047817955
  C   1.72580121377560      0.93383403821793     -0.28853323291362
  N   2.83292882371015      1.11478471885704      0.39055567916897
  C   3.46466481007042     -0.12981867392063      0.21837570965252
  N   2.78041210402338     -1.10120474671108     -0.37603955410295
  H   4.46965477160738     -0.27815613220962      0.58701216148013
  C   0.22226485666992      1.05861315094110     -0.26942575895621
  C   -0.79700522743002      1.89110384429188      0.03048414865911
  N   -2.11947397321013      1.58488913043244      0.03080497701633
  C   -2.64044419911173      0.38320899221804     -0.02304292116275
  N   -4.01085253117540      0.36408608907426     -0.16009210184341
  H   -4.45735596523083      1.24507401983403      0.03217597117844
  H   -4.51896693121196     -0.44955854703786      0.13693928806965
  C   -2.04526666507913     -0.93103443115170      0.06918059615361
  H   -2.74645427104461     -1.73214446006896      0.28170192041067
  H   -0.57491614321838      2.91974165955835      0.28842979609167
  H   -0.89353134862908     -3.28641934986786      0.43521056943569
  H   0.67399697207261     -2.76939143603724      0.00530898623159
