20
Coordinates from ORCA-job ./opt_b97-3c_parallel
  N   3.29805520280644      1.61270080278600     -0.00011787628926
  C   2.32428647980743      0.68050547760452     -0.00009938428437
  N   1.09034946641019      1.22919484479164     -0.00006036841040
  C   0.01226517975313      0.49072867758052     -0.00000017225750
  C   -1.39805676818995      0.75439307827158      0.00005984840846
  C   -1.67448544056936     -0.66483767561052      0.00009312650039
  C   -3.05630228585826     -0.78936607573278      0.00006822616507
  N   -3.62091787493477      0.45379324843124      0.00003966911864
  C   -2.63345687995325      1.39119069869793      0.00001654145233
  H   -2.88136638711932      2.44078291028186     -0.00002301030907
  H   -3.68276313978178     -1.66741635560185      0.00008564811985
  C   -0.27231338597967     -0.97297047045901      0.00003219600218
  C   0.60093276879882     -2.02659874790234     -0.00002751330068
  C   1.98950312196821     -1.83422258882056     -0.00009606414906
  C   2.74036522692197     -0.67940698156412     -0.00012382174896
  H   3.81422627724207     -0.82191074659490     -0.00016956870792
  H   2.57849796182223     -2.74502905970689     -0.00013132170335
  H   0.22261487287451     -3.03996914644290     -0.00002119233819
  H   4.27125159701073      1.37437871250563     -0.00018581056769
  H   3.02717829917061      2.57951029988495     -0.00013560890047
