27
Coordinates from ORCA-job ./opt_b97-3c_parallel
  N   0.60872245836583      3.48905895398181      0.03417713134076
  C   0.04402093376723      2.47066235492804     -0.00988492536101
  C   -0.61090989794540      1.22565312521890     -0.04624458343364
  C   0.19659565146464      0.10115757976395     -0.07585948270119
  C   1.57373346299788     -0.20003194931891     -0.09576766485589
  C   1.28054902489480     -1.62535529093128     -0.03388252053703
  C   2.47726869093100     -2.31381693996613      0.06594041701402
  C   3.49621460760096     -1.32645991213234      0.05655109908386
  C   2.95656957274127     -0.01144051433161     -0.03532719491669
  N   3.66784383748894      1.16334539361068     -0.13360721073166
  H   4.57828784397916      1.16176715045054      0.29426858678870
  H   3.14640487965365      1.99978537261747      0.07258745238184
  H   4.55454300628537     -1.54095272371029      0.10905568982066
  H   2.65154193688549     -3.37602066888146      0.14651861058928
  C   -0.12343680076681     -1.34592986142776     -0.02671079035318
  C   -1.32882690898220     -1.98695693263469      0.03386498450608
  C   -2.57654486274603     -1.33189478087658      0.03277519017552
  N   -3.67688243381486     -2.15491290202468      0.12494278084196
  H   -3.54953670325476     -3.11707224664781     -0.13359161957105
  H   -4.56568370431397     -1.77696295780160     -0.15124217919541
  C   -2.85606277863533      0.04591877500405     -0.00109000040520
  C   -2.04359124006025      1.17796184424190     -0.02474254924405
  N   -2.67635338620842      2.38818063087625     -0.07642226674704
  H   -3.64384241604891      2.43420839734714      0.18475940344604
  H   -2.14294674279236      3.22152490098117      0.10202802477938
  H   -3.91648875219093      0.27623799618788     -0.00096217252578
  H   -1.33335725149591     -3.06860820452444      0.09353640301073
