29
Coordinates from ORCA-job ./opt_b97-3c_parallel
  N   5.19864439474099      0.86534489135371      0.02458105885542
  C   4.04265479418774      0.73615470175630      0.01469176963816
  C   2.64428122818136      0.50509125134886      0.00288644060191
  C   1.87296604004787      1.67504974441343      0.00408667921721
  C   0.49323952511468      1.87564819437150     -0.01075518977105
  C   -0.05363564561686      3.18132846784366      0.01137114624511
  N   -0.60902658467618      4.20207332102572      0.03561860816684
  C   -0.42978172881101      0.83348928604729     -0.03152804356017
  C   -1.80408833498896      0.61329839126006     -0.04540028160241
  C   -1.59341684239720     -0.83636339472317     -0.02217207594014
  C   -2.84301813471268     -1.46255308425671      0.01365542092919
  N   -3.11590434042495     -2.78824488607814      0.11056651851531
  H   -2.37101894900347     -3.43671803329400     -0.07762014166617
  H   -4.03607556193220     -3.11277934487494     -0.12579167799929
  C   -3.80529673478132     -0.40568685092840      0.00677238621826
  C   -3.18643994477275      0.87010083470585     -0.02724178165137
  N   -3.80206127423150      2.07726033325332     -0.09738757245366
  H   -4.76513603611466      2.14854930001396      0.17708948301348
  H   -3.24530659087165      2.89762660207396      0.07189589730217
  H   -4.87407958527822     -0.56238971767527      0.03045304066490
  C   -0.20567958924454     -0.64468832126066     -0.01962607234780
  C   0.95302357324266     -1.40516573391603     -0.00839514150041
  C   0.75779494771879     -2.80256586582274     -0.01566669818023
  N   0.54964278934657     -3.94747511767026     -0.02764172924555
  C   2.27826471756381     -0.88524787538159     -0.00409211668139
  N   3.28217101312080     -1.78637035644804     -0.00571152180346
  H   4.24335672318678     -1.49409166675189      0.00700614484904
  H   3.09026457373182     -2.77183377208220     -0.00060931349691
  H   2.46215424637425      2.58160180729681      0.01971710048307
