19
Coordinates from ORCA-job ./opt_b97-3c_parallel
  N   -3.30079379289877     -1.53397082164396      0.00436544236435
  C   -2.29737684200688     -0.64503800884625      0.00324905020561
  N   -2.73092133945565      0.63324299868922      0.00293551901992
  C   -2.00310084793049      1.73824827760132      0.00227622976911
  C   -0.62588032827736      1.97728087568668      0.00184021100821
  C   0.28155354786759      0.94672869708637      0.00180895882324
  C   1.67814758672555      0.66004410590070      0.00106523275646
  C   1.42217574177319     -0.76847029424170      0.00127496726062
  C   2.66161196410887     -1.38480218975818     -0.00013755770597
  N   3.63820013596861     -0.42704011618833     -0.00111160500106
  C   3.06284837699347      0.80311683131316     -0.00041549388105
  H   3.67626248464553      1.69011915931464     -0.00103836904904
  H   2.92859265606623     -2.42930373729417     -0.00054493245279
  C   0.00715319617182     -0.51794724284316      0.00206145031395
  N   -1.07404316415543     -1.24198816564764      0.00259229945928
  H   -0.29261930009992      3.00662291687951      0.00135749697159
  H   -2.62056079201082      2.63423979333862      0.00203443497727
  H   -4.24854713396954     -1.20461670956445      0.00462327472846
  H   -3.09270795461603     -2.51561288038237      0.00441618753182
