23
Coordinates from ORCA-job ./opt_b97-3c_parallel
  N   -5.16575398651577     -0.79125786115015     -0.01518593450392
  C   -4.01005138838492     -0.65068914212572     -0.02252924082874
  C   -2.63725824387150     -0.38179319578333     -0.02570706244688
  C   -1.58015069485853     -1.32571209994315     -0.01392489131968
  C   -0.41259993778877     -0.58008237181027     -0.00609432980830
  C   -0.73483943956352      0.83719437987011     -0.01489917603389
  C   -2.12397387489099      0.97781824291993     -0.02587216623825
  N   -2.90175499294244      2.07703680337898     -0.07660181766833
  H   -3.89352983220050      1.98405111173787      0.06289594241182
  H   -2.50671107631345      2.97832477217122      0.11557833307530
  C   0.64714083882125      1.16924312685807     -0.01030464986674
  C   1.50131307353967      2.25257671813422     -0.01666061995757
  C   2.89064352552507      2.14479033567759     -0.01181915106610
  N   3.72723179979818      1.10259819736748      0.00315766048635
  C   3.43737769368541     -0.18911221207139      0.01283524941811
  C   2.21354193169296     -0.89531233221014      0.00823505432519
  C   2.25877158715896     -2.31199303543009      0.01679363723460
  N   2.28059906654609     -3.47276784670488      0.02419156436561
  C   0.96931440700126     -0.27413360882870     -0.00097490072043
  H   4.31750534244312     -0.82551658741423      0.02570075718903
  H   3.41903821062524      3.09457753057732     -0.02153893790790
  H   1.08695375817609      3.25314240230536     -0.02929621665073
  H   -1.71309321738283     -2.39508065102626     -0.00830489438852
