23
Coordinates from ORCA-job ./opt_b97-3c_parallel
  N   -6.11358242384065     -0.25848692043036      0.00052389022934
  C   -4.95491224139141     -0.16664939768794      0.00016455950659
  C   -3.55295178387327     -0.05589843574818     -0.00009833019583
  C   -2.84533132235376      1.18373796511526     -0.00056131732806
  C   -1.50994041066104      0.82981528296635     -0.00056499501615
  C   -1.39872562553646     -0.61962834539863     -0.00012189016474
  C   -2.65894123680817     -1.17540237823447      0.00015720710503
  H   -2.96618145209617     -2.20768050376980      0.00052445997390
  C   0.03409412233470     -0.50991293538626     -0.00021429715606
  N   1.01983230379626     -1.36493467790111      0.00004659724345
  C   2.31231222190118     -0.98469150533680     -0.00008847175745
  N   3.15463460535913     -2.02295525611154      0.00024613292686
  H   4.15382487362993     -1.90983272612100      0.00020033579051
  H   2.75744470291172     -2.94592766226914      0.00053218583714
  C   2.89366314423422      0.34043695728629     -0.00051389478471
  C   4.30653169466293      0.37443707402302     -0.00060920373915
  N   5.46972249635785      0.33562358345723     -0.00068127078603
  C   2.24985390729586      1.58276016617979     -0.00087251775340
  C   0.90423589467941      1.92046289699418     -0.00095456665169
  C   -0.08868566392815      0.96699403809001     -0.00066283161292
  H   0.64248869113803      2.96918385194004     -0.00125309813771
  H   2.93542675391589      2.42130631767020     -0.00113144234944
  H   -3.30892272602799      2.15598828827289     -0.00080761667952
