27
Coordinates from ORCA-job ./opt_b97-3c_parallel
  N   5.13049773468162      0.89235347160306     -0.31174607529196
  C   4.10641810836668      0.35876416904919     -0.18006113235120
  C   2.82362401340678     -0.21980678258337     -0.02217368706575
  C   2.77113059007962     -1.62419030563209     -0.06669984466105
  C   1.73341268069877     -2.53119192604617     -0.01539565744202
  C   0.35390121609779     -2.30506444228351      0.13679274132582
  C   -0.14009868761821     -1.02320124910331      0.38882024487614
  C   -1.46640938475917     -0.40012826402615      0.59499467506077
  C   -0.86492931792465      0.87397077795142      0.60361982306059
  C   -1.79534182392996      1.81120282203224      0.10546956117768
  C   -1.53379721310405      3.17295947712070     -0.11198549031525
  N   -1.21977097936496      4.27852075120049     -0.29150528730806
  C   -2.99489435486318      1.10514527145040     -0.14943517045987
  C   -2.77414778158704     -0.27575215191751      0.08849899080015
  C   -3.64506189601722     -1.34666905960111     -0.16556377211790
  N   -4.28400234088292     -2.29529518869394     -0.37817854922148
  H   -3.93624522889218      1.54978781915527     -0.42716175969762
  C   0.45549190737822      0.24586382090445      0.39248005177074
  C   1.75467510308559      0.70111933236392      0.14098738025248
  N   1.96059581744588      2.03325827494517      0.08436347094466
  H   2.85876333371749      2.41350052903930     -0.15625849075157
  H   1.19062492766578      2.67475261703832      0.15582285393520
  N   -0.52760067076368     -3.33689514937702      0.09214326929070
  H   -1.51548150640261     -3.14978918833173      0.07018562919143
  H   -0.24354840133951     -4.22294773032187     -0.28341640012836
  H   2.02983571055431     -3.56851630052362     -0.11790546496619
  H   3.74469458487076     -2.07925490191252     -0.18974150420808
