23
Coordinates from ORCA-job ./opt_b97-3c_parallel
  N   -4.63957445491618     -1.86706635378065     -0.01448218197961
  C   -3.71328391011177     -1.16803818217634     -0.00955454840685
  C   -2.56748024574836     -0.31773201025818     -0.00395194003974
  C   -2.84778934336242      1.04429650250929     -0.00947731256420
  C   -1.95856566096342      2.14339081159339     -0.00943280966285
  C   -0.58825083398398      2.19664264251354     -0.00039764454087
  C   0.24430166432177      1.05886968027581      0.01400716513319
  C   1.62634697445610      0.73677625414554      0.02610746235118
  C   1.30665519876856     -0.66753173339131      0.02688570562306
  C   2.46776480719323     -1.40014369288100      0.01894658547056
  C   3.53307474384630     -0.42366063703233      0.01129376219492
  C   3.01307473797567      0.89251845270996      0.01601169079828
  H   3.60435040546821      1.79497397900556      0.01667882382305
  N   4.86256883271655     -0.75538732472784      0.06526594656696
  H   5.10995857906774     -1.67099732324121     -0.26808309266642
  H   5.51328192142086     -0.04608495531905     -0.22493579490746
  H   2.61449581113030     -2.46985464492914      0.02286551852858
  C   -0.11085561396055     -0.35113950110414      0.01596751779815
  C   -1.32398408788012     -0.99548657857774      0.00609066094742
  H   -1.34249308352285     -2.07523633276436      0.00702038736240
  H   -0.11515043540285      3.16971434202939     -0.00370504170006
  H   -2.45741407297634      3.10613465219674     -0.01806866260280
  H   -3.89700111863641      1.30162913800407     -0.01709551912692
