22
Coordinates from ORCA-job ./opt_b97-3c_parallel
  N   2.94922199501536      2.16999962873837      0.06151015118531
  C   1.98726138630368      1.21242021274927      0.02414827265808
  N   2.49650858690814     -0.02190299217932      0.00735614312886
  C   1.86368286351652     -1.19974016336673     -0.00031520565720
  N   0.56432802391977     -1.59355572778977     -0.01369985256812
  C   -0.38539723594784     -0.69586985915257     -0.00877178390309
  C   -1.81325781057788     -0.70781496304762     -0.01487036265809
  C   -1.83069773490109      0.74558584721540      0.00652209384032
  C   -3.14578440377924      1.17716994641537      0.01079600701544
  C   -3.92549260803627     -0.01080903337714     -0.00827701544671
  C   -3.12201918546895     -1.17382460299607     -0.02385497059743
  H   -3.48507453560678     -2.18897644508513     -0.03893621199705
  H   -5.00681180305225     -0.02278367783567     -0.01012501724750
  H   -3.53787970772893      2.18201140192597      0.02564129479829
  C   -0.39937442485700      0.79099770805600      0.01292847015771
  C   0.64474761552136      1.66621281803675      0.03160754517796
  H   0.46105378795018      2.73294528430078      0.05769950277458
  N   2.70804299717723     -2.25098729513502     -0.00663092748012
  H   2.32957107539720     -3.17890743388887      0.01877221694922
  H   3.69666411244137     -2.09370679322140      0.03868448596284
  H   3.89741413605520      1.87325254554228     -0.08266895019988
  H   2.72160007465016      3.13132904199512     -0.10862039519342
