22
Coordinates from ORCA-job ./opt_b97-3c_parallel
  N   -3.86585079769668     -1.42327354732274      0.01698477975573
  C   -2.80052183562571     -0.59424258501556      0.00689983603546
  N   -1.61242845473035     -1.25365669316111      0.00905234022380
  C   -0.52485008363731     -0.53803965394253      0.01904390388984
  C   0.86894374995098     -0.73638623386449      0.01623200608510
  C   1.10570042592047      0.70965105768895      0.03240102026718
  C   2.50742032418357      0.86159299763189      0.01150306057593
  N   3.10451776353379     -0.35428173902341     -0.00956378407748
  C   2.13901036031175     -1.32220511009086     -0.00634564331760
  N   2.49725013617297     -2.63033362003502     -0.08459557947008
  H   3.45083059615748     -2.83721146692389      0.15905901712096
  H   1.82019520242561     -3.30951004875447      0.21258102836138
  N   3.24693505546546      1.99686598719656      0.06813903448260
  H   2.79753749498844      2.85564038423175     -0.19306914066117
  H   4.21420503180234      1.91165508075962     -0.19284586516730
  C   -0.26495141522699      0.98579804067050      0.02525776303018
  N   -1.06343886192498      2.02785706822894      0.01598296829688
  C   -2.38649858125414      1.79531978260254      0.00516547948331
  N   -3.14182946422010      0.70836783692403      0.00199671546650
  H   -2.97331780286029      2.70943066907690     -0.00399056353204
  H   -4.78651699577530     -1.03205439584031     -0.04594596826664
  H   -3.72268788916101     -2.41337646743726     -0.04512341818252
