27
Coordinates from ORCA-job ./opt_b97-3c_parallel
  N   -5.66140510978839     -0.72249861978755      0.01229026360133
  C   -4.49822864081407     -0.74100282505502      0.00722190187674
  C   -3.08313948552980     -0.68962011638472      0.00172301040763
  C   -2.44907136049370     -1.94325983515457      0.00333569937124
  C   -1.11475238755998     -2.32117420435587     -0.00096323813150
  C   -0.07064047333933     -1.42614486659560     -0.01509530042716
  C   1.35389194203428     -1.36600395125694     -0.01948385310963
  C   1.29959641939753      0.09155284927266     -0.03834706981532
  C   2.59334546678979      0.60351438982197     -0.02780688128354
  C   3.44377098220233     -0.57234141429798     -0.00078755330791
  C   4.83915712818946     -0.48078393024538      0.02913645904963
  N   5.99435702453627     -0.33730834111402      0.05825917833189
  C   2.67359572025462     -1.77114722399993      0.00515322433322
  H   3.09628328576937     -2.76220323947907      0.03140353663184
  N   3.02968519800008      1.87798631948967     -0.08488093922881
  H   2.37793397065329      2.62886232258728      0.05801451070682
  H   3.99825261816749      2.07766587214957      0.09362667021372
  C   -0.11045050181471      0.05440008125020     -0.02663924914093
  C   -1.15127898283747      0.96733001845442     -0.00812523775222
  C   -0.76685201888911      2.32506272911497      0.00820775472587
  N   -0.40874268296262      3.43186027130587      0.02730983520618
  C   -2.53911172885004      0.63707224827318      0.00155401567506
  N   -3.40530617040506      1.66442384953879      0.01289509478404
  H   -4.39832839021996      1.50678267890117      0.01995536100217
  H   -3.08080670751851      2.61524033992888      0.00933503757472
  H   -0.89670457345842     -3.38027133712160      0.00619377749490
  H   -3.15113424641332     -2.76734270774039      0.00996406561001
