25
Coordinates from ORCA-job ./opt_b97-3c_parallel
  N   -2.52508656751953     -3.23309524739144      0.05596435259785
  C   -1.51490083307706     -2.65874395501047      0.02278337735322
  C   -0.34617446670683     -1.86427089306396     -0.00951525520904
  C   -0.52290959248735     -0.48533552233989     -0.04662840880206
  C   -1.55399719608047      0.46228989685214     -0.06557971124996
  C   -0.57253949520177      1.54987446504647     -0.03510969256707
  C   -1.25823483588660      2.75229033697665      0.02515775577909
  C   -2.63249416824977      2.41921837674787      0.02719427291812
  C   -2.84170857861016      1.00672097351785     -0.02435022162430
  N   -4.03769946384018      0.35891706391030     -0.09338382353265
  H   -4.85729085806334      0.84312478266205      0.22710131938896
  H   -4.03840929966544     -0.63065829456586      0.08753781520350
  H   -3.43369257434737      3.14339105582064      0.06389642846221
  H   -0.86587918814701      3.75584534817022      0.07219043642971
  C   0.47977516588306      0.60203894280496     -0.02936814019852
  C   1.86355886732046      0.53764648011531      0.00138538666297
  C   2.60024118511328      1.73945452434463      0.02379134931284
  N   3.25226963566054      2.70287194081509      0.04100381901517
  C   2.58569484293260     -0.70179540722495     -0.00658295985754
  N   2.14782162700897     -1.97687351288758      0.01098571631264
  C   0.92787756357079     -2.46519173083731      0.02028863206587
  H   0.91011804333716     -3.55114100804023      0.05638889100822
  N   3.92863384642487     -0.62881990122114     -0.02603209113909
  H   4.44124457258551     -1.49183209103674     -0.01263685179300
  H   4.42080044544561      0.24695828093530     -0.03389207083710
