27
Coordinates from ORCA-job ./opt_b97-3c_parallel
  N   4.84928233538947      1.55418951501874     -0.25396553349800
  C   4.10745692968327      0.66934147339450     -0.10342764369889
  C   3.13128431196784     -0.31960048780873      0.06979360092127
  C   1.85544233198045     -0.15325491522708      0.69037733007537
  C   1.23788937955671     -1.42214918016227      0.53597731120918
  N   1.97008374624353     -2.31861485341081     -0.11237939263043
  C   3.16932911447920     -1.67140585811035     -0.31482841256100
  H   4.02354912766622     -2.20186784980814     -0.70688159301109
  C   -0.12895207667206     -0.78111754689165      0.44940821310081
  C   -1.43287403744869     -1.15479151266982      0.20885604907052
  N   -1.70521420460346     -2.48868351264438      0.13246594972612
  H   -0.92068682971676     -3.10963727236556      0.03285745977913
  H   -2.56094264709719     -2.79660126676959     -0.29595132968953
  C   -2.49181163752695     -0.20345565020235      0.07568445194729
  C   -3.77956450823327     -0.75235377308031     -0.07636378915782
  N   -4.84101719566251     -1.20833712270992     -0.22417861381693
  C   -2.40811768783721      1.21094662093336      0.02910936466779
  N   -3.59633941242073      1.89732017445486     -0.00825655392835
  H   -3.58145951570154      2.84618310535342     -0.33369040769764
  H   -4.43934672931485      1.39507408932693     -0.22910422422640
  C   -1.26103343595607      2.03746675453098      0.02121658794479
  C   0.08267261267363      1.74592410335245      0.16127468778927
  C   0.54507393412547      0.43704580252740      0.47588449498967
  N   1.03317372124606      2.70343856978413      0.05966369961849
  H   0.81638660036057      3.61974035892209     -0.28504413277130
  H   2.00633207215031      2.45684265709090      0.10888026136532
  H   -1.48379539273146      3.09179273237117     -0.10533819151765
