22
Coordinates from ORCA-job ./opt_b97-3c_parallel
  N   -3.25141018847028     -3.24728606964623     -0.00278394417477
  C   -2.50692580578371     -2.35773610538062     -0.00217147398219
  C   -1.58384760553420     -1.26997187139390     -0.00126333375421
  C   -2.18134764757169      0.00029362767327     -0.00025145927040
  C   -1.58353765438579      1.27041165458612      0.00106553539474
  C   -2.50635012924743      2.35840106487694      0.00216160135915
  N   -3.25062891982753      3.24812266401481      0.00321879488645
  C   -0.23163557448215      1.63842084885576      0.00150997280632
  C   0.81275033107431      0.73256618004738      0.00043016140285
  C   2.24443571699120      0.71812200385282      0.00056283717582
  C   2.24426055534880     -0.71861724921906     -0.00074803820336
  C   3.56377911671864     -1.17059573609840      0.00047990755203
  C   4.36178082450539     -0.00050916652303      0.00241366205721
  C   3.56406394618968      1.16977599576276      0.00261460900224
  H   3.93902261540584      2.18104689722887      0.00409132614484
  H   5.44118489632975     -0.00064177066915      0.00364655604449
  H   3.93848984781196     -2.18195881258484      0.00011812588582
  C   0.81257280807546     -0.73271222847492     -0.00090130197723
  C   -0.23203648750947     -1.63831227460277     -0.00148519733274
  H   -0.00136453495569     -2.69389193727956     -0.00216887522227
  H   -0.00070596444518      2.69394360045657      0.00275243548382
  H   -3.26073150913793      0.00042530221721     -0.00034806567865
