30
Coordinates from ORCA-job ./opt_b97-3c_parallel
  N   -5.58932090502542     -0.53267536592449     -0.01077965291443
  C   -4.42621898877684     -0.45819301749110     -0.00173335239939
  C   -3.02082838502204     -0.36667697470504      0.00707724213657
  C   -2.34639872321337     -1.63888294349692      0.01381561009092
  N   -1.03892977087478     -1.95369884049159      0.01823580694023
  C   -0.10677503287454     -1.04336206720482      0.03615907597710
  C   1.30454732650488     -1.02365104909796      0.04197605636222
  C   1.28643333443014      0.45154055918061      0.06089388852323
  C   2.59331679574559      0.92977491600003      0.03762656857350
  C   3.41781864004650     -0.24838765865399      0.00402272837956
  C   4.81257910504805     -0.23267526746686     -0.02352936691339
  N   5.97800371911147     -0.22434652088648     -0.04534781921621
  C   2.62398752833750     -1.45390717735750      0.00262492336862
  N   3.13603884755912     -2.71036828792268     -0.10084812418347
  H   2.54088502057545     -3.46895271854698      0.17957372944312
  H   4.10704876071737     -2.83554049513460      0.13151953727446
  N   3.04816430728208      2.20485669376318      0.10894164271128
  H   4.00201306412521      2.38779974447497     -0.15064124883612
  H   2.39839469828050      2.94730953158008     -0.08228955973041
  C   -0.10890680380320      0.46753534933378      0.04802677376925
  C   -1.15507039902706      1.36792925971008      0.01585725453542
  C   -0.82158487751318      2.73643249747792     -0.01416696313184
  N   -0.51063471418233      3.85777876027027     -0.04448003512945
  C   -2.52378988390580      0.97132025599341     -0.00052769984999
  N   -3.43013852644168      1.96954307346695     -0.02483449321301
  H   -3.13389011951872      2.92881506817549     -0.02744253833898
  H   -4.41683799328918      1.78391546646297     -0.04264149833690
  N   -3.12637508432160     -2.74063594987651      0.01781539139710
  H   -4.12867868122517     -2.70423530284530     -0.01327469765976
  H   -2.66223400374959     -3.62946792598632     -0.00242731452966
