23
Coordinates from ORCA-job ./opt_b97-3c_parallel
  N   -0.79778655491829     -3.30779945980659     -0.01589237840963
  C   -0.97276038799034     -2.15753455153214      0.00693655822318
  C   -1.17781314948326     -0.76228626662922      0.02641194933323
  C   -0.05587291851649      0.04061483290568      0.06325538826852
  C   1.34908069613852     -0.08581502524031      0.08749253212463
  C   1.49973273108184      1.36074736030314      0.05117509241429
  C   2.86864569482385      1.59953617873495     -0.02450250106849
  N   3.54275605702249      0.42265614010149     -0.03376891495181
  C   2.64366130522378     -0.61168935270480      0.02974845102019
  N   3.07516373163216     -1.89329122001921      0.08310218429076
  H   2.41991418986605     -2.62792023268062     -0.11602871007750
  H   4.02997190484850     -2.05899652222886     -0.18342260715476
  H   3.41439859298616      2.52857420333644     -0.08032044732348
  C   0.08365807044017      1.52391658270528      0.04131121904522
  C   -0.90601369272074      2.47233046022401      0.00403594118501
  C   -2.26903353626367      2.15908242783084     -0.01118865338814
  N   -2.95119665333826      1.02333112503977     -0.00779136770934
  C   -2.51813502045751     -0.24265820370451      0.00249292946899
  N   -3.52123948548979     -1.14351859394558     -0.01428381409877
  H   -4.46109039452099     -0.79187096237907     -0.03209655632050
  H   -3.35912573674183     -2.13418744859092     -0.00416532542162
  H   -2.92718333232265      3.02444103978076     -0.03254431313727
  H   -0.64204160099990      3.52168687669959     -0.01441979431304
