22
Coordinates from ORCA-job ./opt_b97-3c_parallel
  N   5.04515937075246      0.62295484922969     -0.00344916498161
  C   3.96687252841790      0.18791622579408     -0.00195337973071
  C   2.62820411850299     -0.26620169545397     -0.00038926686078
  C   1.65670230030376      0.73974312582252     -0.00008103199146
  C   0.27273629618117      0.40263092143017      0.00196294128513
  C   -0.96098466891031      1.07306794954435      0.00301975015888
  C   -1.67868536864600     -0.15227410663710      0.00207539171434
  C   -3.00257077462712      0.19536437373304     -0.00043881154092
  C   -4.16730026337028     -0.58483626317092     -0.00315855685215
  N   -5.14473419249959     -1.21304229610104     -0.00523770225007
  C   -2.96383584296830      1.68158237062154     -0.00043332752768
  N   -1.74332987182146      2.19268323570981      0.00140497002413
  H   -3.84274311110052      2.30893230859182     -0.00186301827119
  C   -0.37065461785025     -0.89550650084204      0.00193552221046
  C   0.12218276453011     -2.15244631665308      0.00132069681886
  N   1.44330300007481     -2.50370096075892      0.00139951837811
  C   2.46471850223354     -1.70629024612025      0.00083244828253
  H   3.42225254789202     -2.21978149429551      0.00107766559287
  H   -0.56625516890544     -2.98757934742345      0.00096252828814
  N   1.95506558702215      2.04897008477486     -0.00145766347055
  H   1.22201545304313      2.73601000622076     -0.00118649673676
  H   2.90785028924517      2.37124114208366     -0.00295903783954
