23
Coordinates from ORCA-job ./opt_b97-3c_parallel
  N   4.12414664162527      0.26079435186992      0.07132757963735
  C   2.72326934167409      0.31773812759921      0.04323250462587
  C   2.09401323978515     -0.96037839879267      0.04371002214888
  C   0.76855401172779     -1.32309754675400      0.12949547155620
  C   -0.27909920083058     -0.38074842681797      0.31354044183028
  C   -1.69292063200957     -0.41311241964519      0.40962825926218
  C   -1.76854344062256      1.00106589476442      0.25842086162498
  C   -3.05404763400343      1.25774853271705     -0.13717566874001
  C   -3.68689465439056     -0.05192425226921     -0.12911433056682
  N   -2.86165794557407     -1.06624287638316      0.16601921567925
  H   -4.73073834982991     -0.24086628348068     -0.34061937755122
  H   -3.53202561054584      2.18083684656595     -0.42771215097747
  C   -0.26119659324537      1.05132032204523      0.23760154152591
  C   0.76922697047257      1.92707427096462      0.11423734159171
  C   2.13339601856115      1.56946389408860      0.05519222765645
  H   2.82296603953155      2.40493601644920      0.00411121515747
  H   0.53793844983922      2.98122946280305      0.03277922937654
  N   0.37544204570612     -2.63874471693609      0.11667993788491
  H   -0.60271021643544     -2.81192876034099     -0.04616456092844
  H   0.99254386045128     -3.31647989545581     -0.29413731526408
  H   2.78754882093287     -1.79426865836528     -0.02117855658321
  H   4.57761451408853      1.11623120400246     -0.20508424771020
  H   4.52477758559177     -0.52435794262866     -0.41614220703655
