24
Coordinates from ORCA-job ./opt_b97-3c_parallel
  N   -3.84327917056541     -2.22111639748179      0.03363746260730
  C   -3.02659545643910     -1.39276474129781      0.03875556647574
  C   -2.10667683958486     -0.33751143050729      0.03249025706987
  C   -0.74116451056222     -0.32959193573385      0.03003301128606
  C   -0.27728081635089      1.02941050285288     -0.01287343323205
  C   -1.38172899039395      1.90952761026254     -0.04680191317030
  C   -2.50787448445339      1.09350331615265     -0.01694681252724
  N   -3.81864444299086      1.45995171403055      0.03255344786434
  H   -4.50181813269673      0.76433799044904     -0.21617539707451
  H   -4.05343652524356      2.39034843308460     -0.26430809430134
  H   -1.39737200190358      2.98707185730394     -0.08524435916834
  C   1.04962179426462      0.56189038327718     -0.02351425386526
  C   2.37606806032579      1.10396154819937     -0.03612865264657
  N   2.46902723978544      2.46922157298811     -0.09730719227221
  H   1.67488153686606      2.99290728854645      0.22772191333948
  H   3.35570918360911      2.88969536015568      0.12063669851213
  C   3.47519993176472      0.28381539124560     -0.03884169589059
  C   3.57861903562798     -1.15071126505882     -0.03909814709793
  N   2.72061588621406     -2.12479918437829     -0.00939851323623
  C   1.35442127952057     -1.99217555485037      0.02343272538379
  C   0.66081871611038     -0.83291097452012      0.01999352896701
  H   0.81147514199648     -2.92831085811661      0.05085172615635
  H   4.61344967424265     -1.48707013757519     -0.05987498251580
  H   4.43941071035670      0.78287640887159     -0.04744524956371
