21
Coordinates from ORCA-job ./opt_b97-3c_parallel
  N   -4.65646447662726     -0.52808309105738      0.00089770124599
  C   -3.49324541489856     -0.49048596511177      0.00085565950184
  C   -2.08552213977351     -0.35988432958404      0.00047623991451
  C   -1.37309542027490     -1.56732330065690      0.00002026657961
  N   -0.07580161712844     -1.86833664154642     -0.00041546779048
  C   0.79556003858399     -0.87791767537320     -0.00032323282158
  C   2.20753297665551     -0.74761079323816     -0.00072102512886
  C   2.09181768990092      0.71126235243220     -0.00035761132478
  C   3.36213181202112      1.25690485229862     -0.00115880148134
  C   4.24598620773164      0.14450964479516     -0.00195194802239
  C   3.55282767168816     -1.08726453576229     -0.00173156293599
  H   4.00571352350266     -2.06515646160324     -0.00227071681000
  H   5.32351077526841      0.23149646430061     -0.00270998157379
  H   3.65852942057407      2.29330503144694     -0.00121025959995
  C   0.67102669816789      0.61301025977579      0.00005114344360
  N   -0.32893843153412      1.46028546229288      0.00038523526220
  C   -1.59283005495585      1.00707467504610      0.00062628384291
  N   -2.50551314164906      1.98241485838762      0.00105143236456
  H   -2.17498030042192      2.93129804514394      0.00113023084320
  H   -3.49398282916679      1.79768450419691      0.00121544715639
  H   -2.01480419916396     -2.44318782728337      0.00000460503432
