27
Coordinates from ORCA-job ./opt_b97-3c_parallel
  N   -0.85759202738799     -3.75348537092028      0.04696897326847
  C   -1.01351650135928     -2.59909295785937      0.01700907197288
  C   -1.18298466825396     -1.20398085556845     -0.01577960478641
  C   -0.05808832729028     -0.39875561948950     -0.05138917632219
  C   1.33418986217256     -0.47969836456328     -0.06357817402325
  C   1.45407955242453      0.98892284128462     -0.04219350648592
  C   2.80806760157470      1.31331528591935      0.00679311552823
  C   3.50346811944585      0.07000813053718      0.01292207374855
  C   2.61427100155074     -1.03603761410925     -0.02639091410243
  N   2.96672132425390     -2.36224813690479     -0.10387121229122
  H   3.85209287334568     -2.61128705387689      0.30327630750315
  H   2.23665998810664     -3.01588920915775      0.12645679222544
  H   4.58095997360397     -0.01864592597290      0.04742623458772
  N   3.39377946617481      2.55586038177240      0.11858378428726
  H   2.82050888556982      3.31925366884014     -0.19833255073239
  H   4.33612570153605      2.62350956697052     -0.22828862610086
  C   0.04872047296336      1.10730628087077     -0.04182209246634
  N   -0.83198405744953      2.07408496098286     -0.02687463196527
  C   -2.15125395657343      1.77745863993083     -0.03332143178166
  N   -2.86422478495108      0.64519233287632     -0.00907190401401
  C   -2.49539705918256     -0.62993065484334      0.01347925578910
  N   -3.53676740393304     -1.49363920466889      0.09569175539131
  H   -3.40420123903466     -2.48178339177283     -0.02313823695766
  H   -4.45831063397160     -1.11219408931259     -0.01199762179852
  N   -2.93051051874092      2.88727854072649     -0.09057907846350
  H   -2.49190991013760      3.77759016488318      0.05288470671340
  H   -3.91485709255717      2.78721846871944      0.07089808557465
