23
Coordinates from ORCA-job ./opt_b97-3c_parallel
  N   -4.68405239645473     -2.21136900143474     -0.00728294040840
  C   -3.81679330343955     -1.43958365110876     -0.00355760102207
  C   -2.78963257419658     -0.45771507506423      0.00066324295426
  C   -3.30239413213578      0.93071754539798      0.00121275526174
  N   -2.71314446076473      2.07458608652492     -0.00089536056499
  C   -1.36655231883179      2.34632619728591     -0.00332980781613
  C   -0.37377960464688      1.42992419380446      0.00324918072218
  C   1.10257661269272      1.33876452034184      0.00489533773258
  C   1.01327605028044     -0.10068336553715      0.01258805602747
  C   2.32176953475536     -0.63960120723471      0.00544079795176
  C   2.77295864845266     -1.96044602203494     -0.00557996421480
  N   3.20467234804545     -3.04202233160097     -0.01839429348542
  C   3.17991261260123      0.49101502892767     -0.00525313041976
  C   2.40452722933126      1.72866440216341     -0.00627515216051
  H   2.83664651479442      2.71786602453014     -0.01047218910137
  N   4.52312905479427      0.44616188599693      0.02093409455607
  H   4.99353740219721     -0.43596689514441     -0.08589119803769
  H   5.06373360018000      1.27135795925717     -0.15733341775034
  C   -0.38278249076786     -0.03455453679416      0.00859740783151
  C   -1.50059322607123     -0.90602628696871      0.00433761594955
  H   -1.32142657184634     -1.97300591819107      0.00360011703624
  H   -1.12315035008315      3.40038926225180     -0.00868397051566
  H   -4.38753405698643      0.97427881663161      0.00291213237380
