23
Coordinates from ORCA-job ./opt_b97-3c_parallel
  N   -1.22916065148412     -3.97896945577354     -0.00147618763581
  C   -1.28821842095991     -2.81871612797935     -0.00071584430127
  C   -1.34597935184509     -1.40445356215903      0.00038762250911
  C   -0.17437934170126     -0.67489247355481     -0.00950846023946
  C   1.23175095497510     -0.82179312923919     -0.01697895195201
  C   1.41725807245590      0.62305182908946     -0.01875462340618
  C   2.80237011604909      0.82498829409040     -0.00668970392716
  N   3.43755138252175     -0.38927263487214     -0.00205738808495
  C   2.50778456790422     -1.37562157252073     -0.00918630503122
  H   2.81565616867799     -2.40905556445804     -0.00233338356315
  N   3.53056557413783      1.97011028737459     -0.05243819843263
  H   4.50183944491599      1.87734318905089      0.19229401235180
  H   3.08630086561824      2.81795818174104      0.25001929044942
  C   0.01386109498606      0.82405239223675     -0.00539806782051
  N   -0.77862939423023      1.86297546910794      0.00438921849053
  C   -2.11803652030412      1.72859781250749      0.01260610543518
  N   -2.76299222855368      2.91751502173434      0.03480543831903
  H   -2.21160012070650      3.75211807157206     -0.04875725849738
  H   -3.75788682272836      2.98371296578567     -0.06400110932911
  C   -2.93742352676096      0.56294445344523      0.01680412108242
  C   -2.61076820274234     -0.76882032385892      0.01238995954233
  H   -3.45642945405552     -1.44494490239501      0.01802330345049
  H   -4.00099335507004      0.76804291527493      0.03064462099055
