27
Coordinates from ORCA-job ./opt_b97-3c_parallel
  N   4.86538874697041      0.82581456751218      0.01924588702559
  C   3.70940822788447      0.67803455352360      0.00470503692907
  C   2.31129162682351      0.50492576656557     -0.00961620090585
  C   1.56664799327246      1.72884912547780     -0.01394966278915
  C   0.16888724311175      1.90541672970295     -0.01721475865149
  C   -0.75246272510168      0.90396421459066     -0.02237307036157
  C   -2.16760805677965      0.71506876493397     -0.01880941785676
  C   -1.99063116252600     -0.73130725752610     -0.01635020299130
  C   -3.26594933099876     -1.28299665198855      0.01656749571170
  N   -4.18468755616973     -0.28702910665450      0.02350377040781
  C   -3.54475298192922      0.92622746126914      0.00200225504785
  N   -4.28055754830288      2.07952290983882      0.06614421316687
  H   -3.87072258967893      2.89369657796825     -0.35709243796373
  H   -5.25242394924216      1.95249721676214     -0.16541693665263
  H   -3.58154195424794     -2.31377940917395      0.02985687038534
  C   -0.58299732568491     -0.57403910363207     -0.01827000704381
  C   0.55059521183811     -1.35896549962447     -0.01228829378482
  C   0.37335572869248     -2.76028955135784     -0.00604392347690
  N   0.26653244559093     -3.91813777786020     -0.00111900741301
  C   1.89221031388962     -0.85929207743544     -0.01163873182740
  N   2.86178843094179     -1.79539698672541     -0.01119943590285
  H   3.83446434202855     -1.54608604861125     -0.00044862827125
  H   2.62752490084334     -2.77227214946686      0.00142687172300
  H   -0.19055937842353      2.92741096642462     -0.01775332521897
  N   2.29204965514966      2.87383788337007     -0.03565046333223
  H   1.82995493583788      3.75615598562604      0.07164360347501
  H   3.29222307161042      2.86668591069076      0.05794750087142
