26
Coordinates from ORCA-job ./opt_b97-3c_parallel
  N   5.15003429009101      0.50059809470346     -0.20746778450185
  C   4.04522407567374      0.14546612331830     -0.13822557367528
  C   2.67808594996472     -0.21357632617553     -0.04477653188017
  C   2.40263548815746     -1.58635364715023     -0.08316001880952
  C   1.22282293085015     -2.31082233488092     -0.03795994368132
  C   -0.09498201332314     -1.86603162886027      0.11131055345636
  C   -0.38761660661849     -0.50802759038209      0.33036777312218
  C   -1.58421699106911      0.28753548526091      0.52060000057997
  C   -0.82006889297002      1.48116315456421      0.41323844631511
  C   -1.64412935059815      2.49677483884071     -0.07238317453816
  C   -2.94038051316522      1.94570903403057     -0.20483474092462
  C   -2.90453782203650      0.56320690755697      0.10111626863153
  C   -3.92888625634767     -0.38491770940251     -0.02006129576158
  N   -4.70629300132407     -1.24502708706036     -0.12843861226999
  H   -3.83230880998572      2.49243010160191     -0.46690381864942
  H   -1.38586358154327      3.51585278740426     -0.31889245058145
  C   0.40898028491939      0.65568014528976      0.26619812089544
  C   1.76495669500806      0.87358899133742      0.06742208043001
  N   2.19711710245881      2.16478176860145     -0.06147035616748
  H   1.60375844016943      2.87592991946982      0.32987702808289
  H   3.18357005640227      2.34856067040893      0.01476293416189
  N   -1.13570361056541     -2.73979983104683      0.10304884820772
  H   -1.00364464446197     -3.67340157002492     -0.24004414842104
  H   -2.07961490879169     -2.39356163049206      0.07645794020760
  H   1.34748062089359     -3.38388874378997     -0.12890318471976
  H   3.28916255151168     -2.19840800342255     -0.17976942950901
