25
Coordinates from ORCA-job ./opt_b97-3c_parallel
  N   -0.20581016487849     -4.02904894896974     -0.00208374702894
  C   -0.84710066655285     -3.05998892148560     -0.00193943965675
  C   -1.50115926856453     -1.80345629073067     -0.00140711129600
  C   -0.65310707629407     -0.70140425864429     -0.00058688258946
  C   0.72912158959519     -0.43347577574377     -0.00012569050264
  C   0.47388429339715      0.99567669651221      0.00041655200650
  C   1.68356770070453      1.67529880003180      0.00054652408732
  C   2.69210348006221      0.67924945268053      0.00011442395874
  C   4.07589870598520      0.88048755472328      0.00006502276738
  N   5.23670986212877      0.96928133433776      0.00008049206038
  C   2.10696052700818     -0.65530610325026     -0.00037206850941
  N   2.79491019835013     -1.80121978467485     -0.00090030000141
  H   2.31845354312783     -2.68614371564995     -0.00132906019310
  H   3.79978979869844     -1.80087281814299     -0.00112418553859
  H   1.87426635861109      2.73606373438544      0.00087019741682
  C   -0.92493689993046      0.75233774514402      0.00000476755769
  C   -2.14077958962131      1.43013287876169     -0.00005258049049
  C   -2.10587967917545      2.84825723351857      0.00049779589281
  N   -2.05454888184575      4.00789256942859      0.00084966223277
  C   -3.38787484083117      0.78486437546120     -0.00064611215743
  C   -3.70319531917997     -0.57255684215471     -0.00134280339271
  C   -2.90153088906439     -1.70689002023460     -0.00171443458915
  H   -3.42979113207945     -2.65126524909195     -0.00233185445561
  H   -4.76530293197958     -0.77885039220648     -0.00169897050952
  H   -4.24016307067123      1.45156283289473     -0.00057079906917
