25
Coordinates from ORCA-job ./opt_b97-3c_parallel
  N   -3.95757567319688     -2.13720543217719      0.05062811742111
  C   -3.45146551712732     -1.09502133100993     -0.07075529404660
  C   -2.72110573125468      0.09411403642016     -0.19427469980795
  C   -1.39857633306860      0.18342164583592     -0.70993868225634
  C   -0.95973424215900      1.53505906513631     -0.56261467434539
  C   -1.97690345948029      2.26292429920137      0.04415992860406
  C   -3.09103481373999      1.39487030729254      0.19630238923948
  H   -4.07918768118533      1.68574880546066      0.51846138788947
  H   -1.95676766293987      3.29101850599091      0.37631863535450
  C   0.44782690018860      1.02519887583214     -0.36200581286258
  C   1.73345455510250      1.45884067638008     -0.03355313286151
  N   2.81128050481826      0.67622095170309      0.05413156025290
  C   2.84452213800745     -0.65390230794517      0.00602389276770
  N   4.10479907374083     -1.16425479382526     -0.11202990020017
  H   4.22577023243460     -2.13448950067216      0.11377901821960
  H   4.86691131575239     -0.53956644534716      0.07850313785165
  N   1.90790395847371     -1.62344049751844      0.08918589269249
  C   0.60685118506215     -1.48304274544973     -0.05766203941168
  C   -0.04821943237271     -0.26978797105286     -0.43635065354303
  N   -0.17117083669555     -2.56032338205832      0.14662012661899
  H   -1.17276350284758     -2.51191941708290      0.07283033560996
  H   0.25225748120087     -3.42118608330016      0.44287340279264
  N   1.93035365779602      2.78046832381184      0.23766386040542
  H   1.24690840564024      3.43457192842990     -0.10125740751662
  H   2.88545703275017      3.09376122444434      0.24296007463190
