26
Coordinates from ORCA-job ./opt_b97-3c_parallel
  N   -4.69030953814021     -1.59557216143955      0.11197103446811
  C   -3.71148290793280     -0.96931397078891      0.06029255551149
  C   -2.48531372500737     -0.26253014131419      0.00255397804738
  C   -2.60260752090104      1.11279051290732      0.02748993425242
  N   -1.71850621347686      2.13332926496518     -0.06543527419251
  C   -0.41663408815030      2.06707465872847      0.00381683136988
  C   0.36953998161062      0.87428938710975      0.23131152194949
  C   1.72049484118235      0.54417372528136      0.37952176410760
  C   1.38249992287235     -0.85650778249467      0.17560899282038
  C   2.51129740325789     -1.55032601670380     -0.08872890138191
  C   3.61728104552201     -0.57680879767998      0.03481829917103
  C   3.12682032988516      0.69756408637414      0.29138782617859
  H   3.72762554782134      1.58158759170549      0.43877567466442
  N   4.93071263870527     -0.97009778174123     -0.03584097918832
  H   5.12274531999488     -1.77936630883717     -0.60164460411197
  H   5.60739214529139     -0.23774718202413     -0.16887413905788
  H   2.64486925342467     -2.58565165355529     -0.36897291559729
  C   -0.06771773180057     -0.49697992179332      0.09551840518904
  C   -1.28061353456755     -1.07854002326361     -0.04069361269564
  N   -1.40770311586555     -2.44697408860309     -0.27211021243363
  H   -2.28879046667425     -2.84403906014181      0.01671924979664
  H   -0.63435103866939     -2.98665247074957      0.08233790259950
  N   0.28073663581523      3.21997975513214     -0.12457881753298
  H   -0.22376807414630      4.03871025078141     -0.41821283181924
  H   1.26897053948133      3.18490126033839     -0.29541066562537
  H   -3.62367969883229      1.47049692110659      0.08831515501073
