24
Coordinates from ORCA-job ./opt_b97-3c_parallel
  N   -5.97810455012029     -0.13399583287024      0.00738762856199
  C   -4.81798624264181     -0.07592832454021      0.00425039241843
  C   -3.39751729965729     -0.00423505769862      0.00087880323916
  C   -2.86085709824651      1.30115469322856      0.01080712104622
  C   -1.54290524738831      1.72412566580815      0.01161398392059
  C   -0.44470655956226      0.88462864571810      0.00459442294331
  C   0.97924159147906      0.94133473224312      0.00187771366152
  C   1.05272657128498     -0.50428790884813     -0.01010217642389
  C   2.39523985597216     -0.88455229793098     -0.02312975161674
  N   2.97058877209975     -2.10375823929407     -0.08074102695361
  H   3.96181102401642     -2.18177935519289      0.07199375204710
  H   2.42558184626082     -2.91911111405690      0.12853727668954
  C   3.14089128530684      0.36394285684808     -0.02027587174606
  C   4.53802635656146      0.39351919435315     -0.01548945411192
  N   5.70169042996466      0.33932285788735     -0.00656272528312
  C   2.25916609633891      1.47407509726289     -0.00562825556346
  H   2.57980334142855      2.50336048600116      0.00231224209685
  C   -0.37028634270529     -0.59393044336502     -0.00822183243579
  C   -1.37781874426883     -1.53732424084072     -0.01825477450790
  C   -2.73457611802757     -1.24416003751710     -0.01308655324035
  H   -3.39408329161584     -2.10261552677073     -0.02124660250426
  H   -1.10159963458965     -2.58394948631535     -0.03261052142452
  H   -1.36572148890993      2.79187457418199      0.01858874554324
  H   -3.60327902698007      2.08876440740838      0.01837509274367
