19
Coordinates from ORCA-job ./opt_b97-3c_parallel
  N   -4.16678050226999     -0.04368735193394      0.04190915259964
  C   -2.82916273239287     -0.06250473737420     -0.05584251082093
  N   -2.12952508372939      1.17807803971064      0.04903587743265
  C   -0.92048789144864      0.75500090913785     -0.19857202978639
  C   -0.87153462583661     -0.65598359987182     -0.35746711226118
  N   -2.11600024060189     -1.18361221035539     -0.25972548427438
  C   0.52732223066859     -0.63960629479701     -0.19451361575456
  C   1.60324771181507     -1.55843368455783      0.08506643460968
  N   2.86094215857703     -1.28434474652352      0.16402892978754
  C   3.46921635031164     -0.05200847578154      0.02690003567649
  C   2.96649195718924      1.21527588792138      0.01840992135257
  C   1.60872092308621      1.67085667286990      0.02050161941763
  C   0.57565964627873      0.81676816826860     -0.11743126239644
  H   1.42153778860533      2.73205951234884      0.10038466300326
  H   3.71886716207288      1.99634043544364      0.01000729065003
  H   4.54821603035353     -0.13897546030686      0.00325341175853
  H   1.32644257140266     -2.59540050938949      0.25896565639575
  H   -4.64796483964549     -0.91878274116735      0.14211579463570
  H   -4.60037012153601      0.78263157275816      0.41038457097437
