21
Coordinates from ORCA-job ./opt_b97-3c_parallel
  N   5.69441688131213      0.10479409007387      0.00003074657878
  C   4.53396277414402      0.06270566636289     -0.00017010477005
  C   3.11405074193894      0.00265493476685     -0.00017714590620
  C   2.55683362270191     -1.30537702148770      0.00000127943845
  C   1.24036518074886     -1.69881973054337      0.00012802212449
  C   0.18822241982409     -0.78604166870529      0.00008942082350
  C   -1.23236505131956     -0.73940785285644      0.00021401087297
  C   -1.21226882690548      0.71141172512282      0.00004404457301
  C   -2.50348907928675      1.18566484751396      0.00016689142922
  C   -3.33200090893212      0.01037864598560      0.00037469317782
  C   -4.73761521571730      0.03504329100386      0.00056425964186
  N   -5.89948936655557      0.05730556534203      0.00066167476488
  C   -2.54908318379176     -1.17670835202079      0.00044370251446
  H   -2.94875094698043     -2.17706793047422      0.00063062911979
  H   -2.87326514995994      2.19739640464035      0.00012240093791
  C   0.22791234141134      0.68848603011077     -0.00008566292756
  N   1.17668522761039      1.59713646802466     -0.00025928761654
  C   2.46647034506077      1.24905659084845     -0.00030419215890
  H   3.13741573651870      2.10172102727612     -0.00044205461274
  H   1.02052093525658     -2.75750761742178      0.00028243584536
  H   3.29059288222120     -2.10172555036264      0.00006413764948
