23
Coordinates from ORCA-job ./opt_b97-3c_parallel
  N   -5.27496548909339     -0.73764507043607     -0.05466208879543
  C   -4.11338657439121     -0.65690062330601     -0.02458951421078
  C   -2.72533868635897     -0.48429237366478      0.00325654200606
  C   -1.73862084618018     -1.52405623088515      0.00264832357867
  C   -0.52195691602262     -0.88334458389411      0.01161638997427
  C   -0.73555824313208      0.55855288087521      0.01802165456961
  C   -2.11132276716281      0.81561725713878      0.01325544562514
  N   -2.77358331471947      1.99910819355433      0.07461144005111
  H   -3.75194529713688      2.00233497912131     -0.16005476771451
  H   -2.26970670291318      2.82799886512163     -0.18410817849182
  C   0.65745478685646      0.78822180912994      0.00548832445487
  N   1.45210077626537      1.83688351595785     -0.01051801247275
  C   2.78307407234463      1.65852005291343     -0.02326960260310
  N   3.59896061130964      0.62040890301417     -0.01794108026090
  C   3.31653875238710     -0.70072654371146     -0.00455957233147
  C   2.07200101420553     -1.37640513400350     -0.00013390321774
  C   0.89453153471783     -0.69297611100735      0.00512072734394
  H   2.07062429643438     -2.45984057413263      0.00167981093757
  N   4.43360705730103     -1.45750623837040      0.00121629841104
  H   5.32074145085615     -0.98724079354009      0.00324785161148
  H   4.40490629712979     -2.45908509783806      0.02265771190310
  H   3.32341160054336      2.60113600708044     -0.04038322008848
  H   -1.97074734934042     -2.57667404971744     -0.01111591977986
