24
Coordinates from ORCA-job ./opt_b97-3c_parallel
  N   4.13928432500689      1.76004028762676     -0.15710910937694
  C   3.13776223428818      1.16845463102313     -0.07821439325154
  C   1.92727403786641      0.46119733349330      0.00998487231454
  C   2.02571798346841     -0.94866701489504      0.06173024996336
  N   1.07605003478562     -1.89831966612289     -0.09909356775367
  C   -0.21529732028383     -1.79133192157279      0.04695150601846
  C   -0.89647678664393     -0.62285248787380      0.55936216775701
  C   -2.25266705238075     -0.33080663859359      0.86744715815486
  C   -1.96202843962968      1.01446447349994      0.45469761726329
  N   -2.94255674247030      1.47613313439112     -0.28997949194460
  C   -3.88427628998785      0.44328940642251     -0.18942864446365
  N   -3.49872866759427     -0.68081753945711      0.40353548562409
  H   -4.87778452665268      0.57286104756967     -0.59453726001859
  C   -0.47634657646196      0.70735184501795      0.38035462960001
  C   0.72783149820679      1.26007068675351      0.04710757886650
  N   0.79892551686079      2.57804363157520     -0.30177701961898
  H   1.69714695069567      3.02936610683778     -0.31784942282600
  H   0.02276727087643      3.16421853969598     -0.05004540433851
  N   -1.00555217111019     -2.82956080124743     -0.26652369418559
  H   -0.60740388459688     -3.65235082084990     -0.68303854446335
  H   -2.00600517053231     -2.73893755031936     -0.20142394034236
  N   3.25727853491974     -1.50113099110788      0.23498901343293
  H   4.08211795003452     -0.93158264168118      0.16203339993102
  H   3.34464874523521     -2.46991563008581     -0.01276839554232
