24
Coordinates from ORCA-job ./opt_b97-3c_parallel
  N   4.35186336311187      2.08870915555222      0.28342173476506
  C   3.61788505689861      1.19895436181707      0.13888912351996
  C   2.74122940614469      0.11658288729321     -0.03473658987046
  C   1.38309826736754      0.12311710860710     -0.21939529074260
  C   0.91463154824058     -1.23157278884406     -0.25021894331121
  C   2.02660656377561     -2.11089866515867     -0.10583631603038
  C   3.13425629091764     -1.30297276903245      0.00219991652401
  H   4.15673503591171     -1.63221131000173      0.09432751420662
  H   2.04032022943646     -3.18956246632396     -0.10513592531320
  C   -0.41341419980042     -0.76492396806271     -0.12997578836747
  C   -1.71731378534897     -1.31542517589908      0.06122935844534
  C   -2.83193930345174     -0.52001287187874      0.14316927186091
  C   -2.97164354425213      0.91129813039259      0.05574760490862
  N   -2.09430132210366      1.88249624807203     -0.01219129518674
  C   -0.74425691198973      1.76450091264811     -0.04606633235812
  C   -0.02447157293825      0.62031974944932     -0.14267538291053
  H   -0.21363945461971      2.70884384738986     -0.02120971752721
  N   -4.28859993678392      1.33813563466888      0.12383396880580
  H   -4.99256499445203      0.74360124860641     -0.27850415330013
  H   -4.39511395953605      2.31233158895420     -0.10715130768467
  H   -3.76675102388859     -1.04688349138556      0.30748946448934
  N   -1.78189706625975     -2.67315731243617      0.21498930079957
  H   -2.67358885037035     -3.12644932319251      0.12342237459740
  H   -1.00279604770940     -3.20942768743536     -0.12344408011989
