30
Coordinates from ORCA-job ./opt_b97-3c_parallel
  N   0.15092539296543      4.25853384131910      0.00638979040978
  C   0.64478239244206      3.20692231259027      0.00099161437552
  C   1.11021146571243      1.86887418638525     -0.00214903510549
  C   0.12633726809989      0.88887018905998     -0.00234386009922
  C   -1.26126295373091      0.75474365331868     -0.00334151994600
  C   -1.14262659347194     -0.70636207606637      0.01029427617736
  C   -2.41837949537479     -1.26496728494790      0.01670158077404
  N   -2.79409348300376     -2.55369614776279      0.06840774795359
  H   -3.75830892062448     -2.80719863022471     -0.05329972812557
  H   -2.10822535038564     -3.27969887490395     -0.03602591326680
  C   -3.32792657251091     -0.13880343354945      0.00393620108530
  C   -4.71690675713654     -0.25386296165598      0.00192141053475
  N   -5.87838972224218     -0.35245527206976     -0.00060001254554
  C   -2.61621508364871      1.10939294356482     -0.00975232513807
  N   -3.16931467053450      2.33073826595284     -0.05382311412815
  H   -2.59102377905292      3.14857919575374      0.02157112609408
  H   -4.16243618415514      2.44929137542987      0.03544311877747
  C   0.25710921168519     -0.60137536961177      0.00696952994614
  C   1.36280511494210     -1.43108653126346      0.00302214518154
  C   1.07894360424597     -2.81456517619412     -0.00331077179151
  N   0.79802219934334     -3.94317086824782     -0.01197365892028
  C   2.72050494824754     -0.99679965759702     -0.00030831820778
  C   3.17117362054319      0.36799003551477      0.00064395908139
  C   4.58233819880977      0.51064436130392      0.00121342403839
  N   5.74369874879915      0.56632541913083      0.00144090576302
  C   2.47651875410650      1.58352195133116      0.00006730327673
  H   3.12085909805910      2.45165449952638      0.00142712764702
  N   3.66356234282886     -1.95959575882876     -0.00486650017197
  H   4.64196861276510     -1.73009024322669     -0.00521533077314
  H   3.41042424877678     -2.93133636353078     -0.00135249719672
