27
Coordinates from ORCA-job ./opt_b97-3c_parallel
  N   2.08574262167285      4.13837523992978     -0.24985302292575
  C   1.82543881206886      3.01052666997539     -0.14987047847651
  C   1.41908671746743      1.65795178013668     -0.02744742858080
  C   2.45219858232517      0.70597557919379     -0.04669463862796
  C   2.46368625921889     -0.68229050001507     -0.01336712847320
  C   3.74390267482894     -1.28941528312490     -0.07434775341482
  N   4.75979155689236     -1.85150561233296     -0.11896541115738
  C   1.35927198694495     -1.58945633193989      0.06495747556729
  C   0.06771813246239     -1.12743737414795      0.23200571233722
  C   -1.30269194238645     -1.70163959299594      0.35352939924159
  C   -1.82357397437968     -0.38435570607769      0.48283182724128
  C   -3.18751467195129     -0.40148773634702      0.09642573401370
  C   -4.02176717579063      0.72230241736483      0.03358503495187
  N   -4.62458953100453      1.71652591262564     -0.02247414534522
  C   -3.48592709610869     -1.74223351045176     -0.22040775488568
  C   -2.30821297029669     -2.53360521533241     -0.12209626226699
  H   -2.25071559657922     -3.57635991778168     -0.39595395298175
  H   -4.46765789298485     -2.10928039265526     -0.47344170114275
  C   -0.50524660371539      0.16422255478522      0.30439030970725
  C   0.02503759588760      1.45596948823273      0.10050131309297
  N   -0.84352291220362      2.48209641928688      0.05178706565254
  H   -1.83248478809637      2.32753535173410      0.14638748250000
  H   -0.53334658082771      3.42574643800429     -0.10270005991072
  N   1.56181431920787     -2.93251163350577     -0.06708556481644
  H   2.49778013921759     -3.29262114292246      0.01442105136469
  H   0.83811272130287     -3.53900722394637      0.27726601022346
  H   3.43636441332783      1.14688779170756     -0.11573248538786
