22
Coordinates from ORCA-job ./opt_b97-3c_parallel
  N   4.70920446482500      1.77408114877282     -0.00735152589095
  C   3.76841814137743      1.09402303796230     -0.00569334028474
  C   2.59791734762134      0.28204651375315     -0.00368778542159
  C   1.35517927446538      1.01502194980763      0.00595205412187
  C   0.14431765097250      0.41705512605072      0.01739138829293
  C   -1.28879609609428      0.78687066924840      0.02741019480280
  C   -1.62921131482747     -0.60528810565631      0.03293859854975
  N   -2.95894582982472     -0.84920967830807      0.02111962316943
  C   -3.46645368439303      0.39695663766863      0.01350290186098
  C   -2.46152500291377      1.47353569370565      0.01494636832741
  H   -2.67473903008063      2.53115077875052      0.01116128402531
  N   -4.80157992573180      0.60989702430150      0.05331721470552
  H   -5.16097263606530      1.50118083337410     -0.23496384189820
  H   -5.38889936134733     -0.18537805388741     -0.12935688763009
  C   -0.27832291284979     -0.98691695235932      0.01635452907156
  C   0.52201697684468     -2.16053865679355     -0.00444510735862
  C   1.88058620882321     -2.15890571530740     -0.01564849434068
  C   2.81671464476543     -1.07258012767803     -0.01197695236150
  H   3.85427674781812     -1.37577712568241     -0.01895083340526
  H   2.35088490039806     -3.13505259229599     -0.02933204931896
  H   0.01023276125457     -3.11417849249728     -0.01120293489854
  H   1.41642745396234      2.09291988927034      0.00600392958156
