26
Coordinates from ORCA-job ./opt_b97-3c_parallel
  N   -4.78678782048102     -1.61760697260448      0.21990238932872
  C   -4.07412355154571     -0.71489065630958      0.03869373201223
  C   -3.12407816898344      0.29530505109697     -0.15732570856683
  C   -1.84744927247756      0.14555417175375     -0.78045057125342
  C   -1.25167762578906      1.43028765438723     -0.63688729559702
  N   -2.00103655667474      2.31246273320567      0.01461416562170
  C   -3.18857216535848      1.64840682495070      0.21848380116244
  H   -4.05268059787897      2.16656028059183      0.60556138396292
  C   0.12053346650486      0.81060442122579     -0.48631064128546
  C   1.41552403997782      1.18150806809177     -0.16924253764071
  N   1.68274878975092      2.50498683549637     -0.04470058555636
  H   0.90664992295865      3.14170597416272      0.00273852109933
  H   2.54581750889143      2.81254996459753      0.36824521218205
  C   2.45292148103294      0.21652432585187     -0.01078911772066
  C   3.74670908224074      0.72962012936589      0.18710974433683
  N   4.81288456365320      1.16605780247931      0.36076704299893
  C   2.32915158673842     -1.20444317832413     -0.04452993502757
  N   1.24573630699489     -1.98934578618571      0.04478429505812
  C   -0.02572659194233     -1.68026176708296     -0.06750636551584
  C   -0.53248904362929     -0.41105948496662     -0.50296103363977
  N   -0.93606728054749     -2.62392017058156      0.21975204341098
  H   -0.63128459948041     -3.52624705295572      0.53840585719006
  H   -1.92196277920826     -2.44752580209267      0.13098804871216
  N   3.47659678148402     -1.92674939900749     -0.12713727005399
  H   4.37384955128026     -1.48556427857791     -0.03174986519008
  H   3.40957178658856     -2.90267618996846      0.09706411627122
