22
Coordinates from ORCA-job ./opt_b97-3c_parallel
  N   4.10797368837938      0.29982895481129     -0.07377075375332
  C   2.71158803464364      0.34628437178288     -0.03046657089489
  C   2.09156411881350     -0.93677364482625      0.00075339728701
  C   0.76905355277032     -1.31220860836482     -0.07031676978377
  C   -0.27491153370286     -0.38538923250595     -0.36252848577985
  C   -1.68231909159350     -0.47186633226019     -0.54870887686519
  C   -1.77505307735017      0.91815538052025     -0.27721612747177
  N   -2.91758756760747      1.20162799312092      0.30966733416621
  C   -3.54788954404994     -0.05231601411585      0.26708299847588
  N   -2.84007283161521     -1.09521844871468     -0.17023126512177
  H   -4.57383671873570     -0.15164376559470      0.59116000294577
  C   -0.26573573459993      1.04008809307637     -0.25985045259262
  C   0.74314399963520      1.93034116948049     -0.09805139660126
  C   2.11118147717668      1.59395059913280     -0.03883970129891
  H   2.79062457339175      2.43663948254965      0.02025474780279
  H   0.48858427341283      2.97574792773894      0.01743075165423
  N   0.36675800751399     -2.60220398380575      0.11986667262303
  H   1.04167470582093     -3.34472966860313      0.10870334803416
  H   -0.56911564607670     -2.84913038784307     -0.15300393023631
  H   2.79123405648749     -1.76174447783419      0.10389014215857
  H   4.56445857369441      1.16226186717944      0.17326128520954
  H   4.52818361789137     -0.47988846222455      0.40510905674250
