23
Coordinates from ORCA-job ./opt_b97-3c_parallel
  N   -2.97770555736883     -3.59888138791833      0.04036930239048
  C   -2.63801219764170     -2.48776933536020      0.05395952724995
  C   -2.18945725301224     -1.15726095609685      0.06706887699608
  C   -0.84458347380203     -0.69146498928131      0.15815135564825
  C   -0.84551149902220      0.72534281005845      0.13808333604110
  C   -2.14760426902095      1.17629133894279      0.02504599866988
  C   -2.61910631753467      2.49575451127484     -0.07236460426023
  N   -3.00673353007958      3.58792455892241     -0.15367724929946
  C   -2.98171881871240     -0.01121389086491     -0.00012879172318
  H   -4.05702512170687      0.00229321849960     -0.05493443951682
  C   0.64144768671071      0.73188520905764      0.08371646056452
  C   1.70600673913569      1.57414244309584      0.00788821302470
  N   3.01647435992522      1.23699860578971     -0.00236361723303
  C   3.55016682499745      0.04116713079271     -0.04313107923852
  N   4.92563205609273      0.01583289973784     -0.08407543038368
  H   5.36614848303233      0.89673684786329      0.12152299235695
  H   5.41016068404247     -0.79537072639398      0.25637711286267
  C   2.93882274484640     -1.27333832434347     -0.12549435925641
  C   1.62974485597676     -1.63289106850530     -0.06120684701141
  C   0.57197741632823     -0.71320262676738      0.07783658903566
  H   1.38546627594666     -2.68488597976403     -0.13216092937004
  H   3.64361231455672     -2.08686386422154     -0.25628956776098
  H   1.52207278161006      2.64119959338219     -0.02053926238644
