23
Coordinates from ORCA-job ./opt_b97-3c_parallel
  N   4.59130814461965      0.08956185941094      0.00183460283967
  C   3.42607571168609      0.04723287472312      0.00132923742045
  C   2.02079856025732     -0.00915177987839      0.00100901666120
  C   1.46937288854295     -1.32793551355606      0.00103375152412
  C   0.10380428319773     -1.69184079203837      0.00066295959946
  C   -0.91215013102591     -0.79140155203177      0.00005790110925
  C   -2.34659434888506     -0.73114602063464     -0.00035271815181
  C   -2.31497803711779      0.72058579105470     -0.00051349182176
  C   -3.64180661571126      1.13740427816269     -0.00005675346699
  N   -4.44887265063413      0.04538706071232      0.00030990141385
  C   -3.68232163708934     -1.08860104230669      0.00018733181179
  H   -4.15355246761904     -2.05847039965800      0.00048964561390
  H   -4.06542019117152      2.12881025793593      0.00001406550655
  C   -0.88601305355125      0.69904019839944     -0.00005696013780
  N   0.05657489923016      1.59772896396697      0.00041988527617
  C   1.36419497505487      1.26753904016036      0.00090647504720
  N   2.14954227480156      2.35862408329393      0.00134261171435
  H   3.15261669116800      2.31385945431266      0.00164703639291
  H   1.69080042799242      3.25146815388982      0.00107645508841
  H   -0.12857795794620     -2.74961893266927      0.00084859133482
  N   2.34576237140101     -2.35299432289725      0.00143888407131
  H   3.33953715139848     -2.20442138498995      0.00184598830127
  H   2.01676792450125     -3.29924752336254      0.00147227155167
