24
Coordinates from ORCA-job ./opt_b97-3c_parallel
  N   3.67349153445805      2.59605387180333      0.02677297211884
  C   3.02330412184146      1.62865908005907      0.03601077840748
  C   2.29693913285459      0.43797101927377      0.04042063426559
  C   0.89530107260984      0.19760233755372      0.05576239650698
  C   0.66883344911077     -1.23182258264158      0.02565376944469
  C   1.85161436475314     -1.89071493917379     -0.01263325324339
  C   2.88189819883218     -0.84763045340128      0.00328442457669
  N   4.20564492809230     -1.10754994185001      0.02835186246462
  H   4.53530214358060     -2.01518625670518     -0.24333144681916
  H   4.84962732373607     -0.34654474600778     -0.10616917518599
  H   2.06203366527276     -2.94931880958070     -0.04829484333263
  C   -0.80204054265635     -0.99458100632569      0.00298925761729
  C   -1.97256220543747     -1.64974935057060     -0.03523812202079
  N   -3.23490612963155     -1.09365183346566     -0.00960543598077
  C   -3.54542097540347      0.16005290318398     -0.04200187122806
  C   -2.72217351837278      1.38723452528076     -0.09712034197390
  C   -1.38283136658292      1.52990437036588     -0.05282972862847
  C   -0.47444431111758      0.43812179319230      0.01800477144955
  H   -0.97234501497763      2.53174841633617     -0.09128692682578
  H   -3.29700592304930      2.30201490327621     -0.18523897701672
  N   -4.89818163383683      0.45031582912142     -0.08923991055224
  H   -5.48385010559134     -0.34286435015568      0.11653511401829
  H   -5.20978966769646      1.31258721132674      0.32418811652604
  H   -1.97406644688809     -2.73242694909541     -0.05566462148817
