24
Coordinates from ORCA-job ./opt_b97-3c_parallel
  N   -3.97253279914254     -0.04599957376624     -0.07513013452083
  C   -2.59134854808875      0.01346209738185     -0.01701223509615
  N   -2.11603154614629      1.23729539118463     -0.04155741810263
  C   -0.82120371664723      1.62675767279982     -0.08221500251385
  C   0.25423728265890      0.80701488015238     -0.31213010263134
  C   1.77244982464202      0.83308951631681     -0.40582273221675
  C   1.74736311775284     -0.57639835286977     -0.65764764275785
  N   2.89752676799479     -1.22148055617462     -0.29631416484246
  C   3.66061054359311     -0.22064850623330      0.15305025106066
  C   2.98841904648101      1.06481062396422      0.18566478315125
  H   3.38258609552487      1.96308279457989      0.63762403341666
  H   4.68470497285270     -0.40121500653597      0.45285152548917
  C   0.34189345905254     -0.59454931815103     -0.44101261067878
  C   -0.63026380008680     -1.58990941243268     -0.11406663300587
  N   -0.15724716927076     -2.86289144770248     -0.04542397752297
  H   0.84062718078647     -2.98732750847296      0.00233485933141
  H   -0.71469014327016     -3.58177591018616      0.37869811487721
  C   -1.95462096478954     -1.26978339458964      0.05409949037579
  H   -2.62753105924468     -2.10444755321424      0.22094195543306
  N   -0.62043937617872      2.96959666074322      0.17355579541924
  H   0.22659848019468      3.35835016161673     -0.20775484044686
  H   -1.43747364299627      3.53472924620927      0.01115122098962
  H   -4.42398288452346      0.82486847659799      0.14872873305096
  H   -4.42356685684875     -0.85812353421775      0.30753912304134
