24
Coordinates from ORCA-job ./opt_b97-3c_parallel
  N   4.32356402309394      2.13931323931996      0.06960294968978
  C   3.39086758757739      1.44248406874127      0.02886487899756
  C   2.29483239491530      0.55630094115150     -0.01500749894805
  C   2.61490098549715     -0.79133589903129     -0.04883103062596
  N   3.93246879778329     -1.18169761759266     -0.13884945850472
  H   4.17013403609230     -2.08494326666518      0.23141720787975
  H   4.63737070273222     -0.47925103300239      0.01803516823706
  C   1.70253935632731     -1.93024920223566     -0.06410258074735
  C   0.35436698619885     -2.00443829583213     -0.01989650479308
  C   -0.52684906110826     -0.89464832444201      0.03175816436191
  C   -1.89165062137873     -0.61437961132483      0.06389976111972
  C   -1.65103643479322      0.80869321585621      0.02790292248258
  C   -2.86363023970455      1.40223853049076     -0.01076321438175
  C   -3.79622657974892      0.24475608721009      0.01330878861484
  N   -3.20702137502737     -0.95452418994708      0.05258702311555
  N   -5.13971935130073      0.37759787093762      0.04090136853963
  H   -5.55394996704333      1.24227864091996     -0.25413826481442
  H   -5.68311044887860     -0.45512014767510     -0.10767587735917
  H   -3.15763397542890      2.44002775821703     -0.05053118723815
  C   -0.18418716008607      0.54074827926867      0.01186500223062
  C   0.98184032013509      1.19062933421688     -0.02083182045309
  H   0.98379757979460      2.27110952205059     -0.03430817143070
  H   -0.08933473746276     -2.99249042349019     -0.03681547097287
  H   2.21595852301383     -2.88264980404191     -0.13066283379959
