22
Coordinates from ORCA-job ./opt_b97-3c_parallel
  N   0.52189631210413      3.82627023364714     -0.00126671213760
  C   0.05089265167590      2.76418083548155     -0.00074469289861
  C   -0.50898210004329      1.46510745904746      0.00019947201712
  C   0.34131516288867      0.35874287738775      0.00056845991862
  C   1.71983975011517      0.03746783870942      0.00025276691966
  C   1.39815048672835     -1.37958331367710      0.00116690044951
  C   2.57164437568032     -2.10339975456516      0.00116727851768
  C   3.61300828211654     -1.12420462043504      0.00025664580813
  C   3.10539430953798      0.18873080538813     -0.00030765544470
  H   3.68999904213294      1.09400052766907     -0.00101855758441
  H   4.66594156794670     -1.36700791407619      0.00003273371468
  H   2.72269219671370     -3.17145329947259      0.00171862622904
  C   -0.00863384403159     -1.06601598421413      0.00150612051422
  C   -1.22303446019188     -1.69135067558103      0.00235284636249
  C   -2.45566177879045     -0.99912091414603      0.00252631338852
  N   -2.74281278046480      0.32521012893045      0.00163039510950
  C   -1.91532534488366      1.34637106884358      0.00061975813041
  H   -2.43444713169409      2.30149455573496      0.00001983314400
  N   -3.57846112306477     -1.74325685128406      0.00368079934409
  H   -4.46069102593185     -1.26329244810463      0.00392986032696
  H   -3.55930808697261     -2.74548701591129      0.00475190102909
  H   -1.25016808967145     -2.77399330027224      0.00300750364162
