20
Coordinates from ORCA-job ./opt_b97-3c_parallel
  N   -5.18136078615016     -0.95352591673973     -0.00184701843155
  C   -4.08821638937425     -0.56406760926068     -0.00091916859544
  C   -2.76065779237388     -0.05406178456794      0.00005620263697
  C   -1.74246193577421     -0.98038867564314      0.00030881965688
  C   -0.38689834723630     -0.61904143131594      0.00145687254436
  C   0.90409406540497     -1.20410628624036      0.00199675725379
  C   1.53282215535244      0.06515963650237      0.00158020911847
  C   2.88971788786159     -0.18893604315698     -0.00021628042548
  C   3.98940147067640      0.67776630402627     -0.00173967473197
  N   4.91138805549506      1.38564194811637     -0.00261917393671
  C   2.95101270976290     -1.65782015112893     -0.00047044502409
  N   1.76272191840734     -2.25749734491217      0.00071815743203
  H   3.86873741732336     -2.22648658159688     -0.00154102374446
  C   0.20792849417613      0.71363168201920      0.00143174351523
  C   -0.35947120101219      1.95252291393135      0.00086736566984
  N   -1.68919483133670      2.22475756590520      0.00088590518917
  C   -2.69149540005405      1.40007683924966      0.00068190491180
  H   -3.66661955829262      1.87600391735852      0.00079855978427
  H   0.28176565844132      2.82412300924852      0.00054279854567
  H   -1.99690889949713     -2.03111805719473     -0.00033297446876
