23
Coordinates from ORCA-job ./opt_b97-3c_parallel
  N   5.20443209092555      0.24207393640630      0.00079583605128
  C   4.05133103763158      0.40312812980643      0.00011186265462
  C   2.65684068016679      0.50903481752780     -0.00070427392030
  C   1.89379399219328      1.70599540822946     -0.00217230362522
  C   0.56416614382317      1.31274229832684     -0.00240121248691
  C   0.49847644483140     -0.13839422034948     -0.00102716320735
  C   1.79242653094779     -0.66095896771276      0.00009615911554
  N   2.20892030253613     -1.93278850242840      0.00144152018529
  H   3.18819024058376     -2.15673802023289      0.00268432027105
  H   1.54785490400267     -2.68914109462065      0.00247029149796
  C   -0.90720309005301     -0.09224350203694     -0.00104405084895
  C   -1.99655463455902     -0.95333345207073     -0.00000367906899
  C   -1.69415881995579     -2.33640358014219      0.00161389969996
  N   -1.34391040613637     -3.44448990345402      0.00265133299293
  C   -3.33887730231011     -0.50862172995428     -0.00043081515470
  N   -3.86927315703645      0.70042507075464     -0.00169817336963
  C   -3.25232682712685      1.89157258596088     -0.00291090789838
  C   -1.91339969554393      2.27615814725305     -0.00333743170898
  C   -0.85970201756448      1.38573597253959     -0.00252584664567
  H   -1.70655266830270      3.33904087686659     -0.00434227989595
  H   -3.95988591186813      2.71600176066864     -0.00369473059839
  H   -4.07732865019223     -1.30567079340573      0.00044144600154
  H   2.32256232350514      2.69517705375654     -0.00285113063300
