28
Coordinates from ORCA-job ./opt_b97-3c_parallel
  N   -6.10525375091401     -0.72264582010547     -0.09102637626430
  C   -4.94211577544326     -0.74246771730987     -0.04918092154262
  C   -3.54336239551174     -0.69124918809689     -0.00507208014593
  C   -2.65965538229556     -1.81719878339788     -0.01290261575578
  C   -1.39204152174779     -1.28845244089078      0.02304036525841
  C   -1.48120048314380      0.17711521865381      0.04962804472910
  C   -2.82095909576933      0.55652815803888      0.03410398788274
  N   -3.37788100612603      1.79164186231187      0.11303787076773
  H   -4.34782477508547      1.89050526971241     -0.13346545882424
  H   -2.79808483389810      2.58516850063220     -0.09626200834336
  C   -0.08273757476193      0.29661095703935      0.03644761060451
  C   0.88467666818664      1.27977533459395      0.00940050335722
  C   0.44610514179694      2.61829747326220     -0.01573753284995
  N   0.05745238464201      3.71500731150465     -0.04317404535331
  C   2.28343057030340      0.99312970133978     -0.00520306337851
  C   2.88703490874198     -0.29944710828478      0.00024484026833
  C   4.29522697001358     -0.28114744634429     -0.00441450582150
  N   5.46047271441268     -0.26483721366516     -0.00902457980102
  C   2.30980648705527     -1.61785151232953      0.00344578152976
  N   1.02703013458426     -2.03042679280175      0.00404319859959
  C   0.03168946480176     -1.19411297625057      0.02059425592597
  N   3.16445552959070     -2.65680031054907      0.00326170962669
  H   2.76535620097892     -3.57773756330863      0.00459631708566
  H   4.16261787517855     -2.54857196357345      0.00150871247038
  N   3.10322491009669      2.05859194369975     -0.02537337797250
  H   2.73044601196547      2.99141953973212     -0.02232656119876
  H   4.10244965892641      1.95371535509142     -0.03596166810367
  H   -2.98364717547881     -2.84397271320471     -0.04984515215137
