21
Coordinates from ORCA-job ./opt_b97-3c_parallel
  N   -0.88755251240253     -2.60368170619967     -0.10524534161149
  C   -1.20571633216837     -1.26612209402595     -0.07946177701217
  C   -0.11652951696792     -0.37068780029455     -0.21680044743879
  C   1.29722477652247     -0.45742801285049     -0.30115382187818
  C   1.43451558070833      0.95286866557499     -0.18563577264471
  C   2.76310290546062      1.17473018231851      0.07331281098500
  C   3.33961164326130     -0.15580356144449      0.04934140229707
  N   2.45462351221917     -1.14829935278190     -0.15277055546281
  H   4.38832707920703     -0.38210367742856      0.18428036766983
  H   3.30290871319609      2.08720735184486      0.27345640012424
  C   -0.05703240927097      1.06988807791584     -0.14657947643124
  C   -1.03159772438574      2.01288980768358     -0.03624979103653
  C   -2.41240735453891      1.71267879760045      0.01316317041122
  C   -3.03657084585238      0.48751594533483      0.02322877969692
  C   -2.51295756664005     -0.82303105222404      0.00725065133023
  H   -3.26162181534539     -1.60685552498960      0.06997408825838
  H   -4.11755487732678      0.52360497971330      0.07505114110689
  H   -3.07269589138865      2.57042418649958      0.06048627520033
  H   -0.73829001619899      3.05253914560051      0.02376164076775
  H   0.07444498217184     -2.83866183088348      0.07550652440027
  H   -1.54944242706020     -3.25072587006375      0.28573535096782
