27
Coordinates from ORCA-job ./opt_b97-3c_parallel
  N   -5.67942647043551     -0.25541988134723      0.01856314739059
  C   -4.51918432573055     -0.17367703411799      0.01135359886032
  C   -3.11455481648761      0.00979353993956      0.00270522719622
  C   -2.37193089523251     -1.16995635616951      0.00397275378967
  C   -0.99264730835047     -1.39219107492569     -0.00723793537181
  C   -0.46915921225516     -2.70746527555740      0.01010226999185
  N   0.06612689881351     -3.73869645949560      0.02863563297622
  C   -0.05166713860868     -0.36600407047320     -0.02813377364925
  C   1.33881877265006     -0.20376429386896     -0.04094113522663
  C   1.19488371678294      1.24623825380296     -0.02493302017138
  C   2.44278789331697      1.82070360347357      0.00220734271176
  C   3.37790578452940      0.73136455937175     -0.00066419225504
  C   4.77165499203449      0.83602964796195      0.02955868024510
  N   5.93573485246401      0.86083974790850      0.05778286442844
  C   2.69921339627507     -0.53856307337910     -0.02731063672160
  N   3.28154222576052     -1.75080987202569     -0.07416091370933
  H   4.27147853137043     -1.83824014233966      0.07334275297798
  H   2.72243404875985     -2.57747333193349      0.04105403198233
  H   2.73189919496883      2.85900883723664      0.02841562079471
  C   -0.23475344169679      1.10348577636041     -0.01991318449681
  C   -1.36254005372645      1.87132121617206     -0.00697633927052
  C   -2.68699460716659      1.39007805906652     -0.00123211118770
  N   -3.66214607638010      2.32171062876743      0.00415873009217
  H   -3.43554593409704      3.29801220748625      0.00125626307689
  H   -4.63499982363969      2.06803568569945      0.01036430886668
  H   -1.23726121398202      2.94737090003750     -0.00154510049556
  H   -2.97545470273693     -2.06754384555103      0.01561193417465
