28
Coordinates from ORCA-job ./opt_b97-3c_parallel
  N   -5.79238039813607     -0.11078356636893      0.03004946066223
  C   -4.63038686941558     -0.05859611159372      0.01831915422892
  C   -3.21422914360157     -0.07258068536870      0.00400305165877
  C   -2.61609151139624      1.19000002310375      0.00192125161975
  C   -1.26701072280126      1.54906315717820     -0.01417675520287
  C   -0.86042709931093      2.90461145483016      0.00104582039449
  N   -0.41258457148751      3.97703144239799      0.01681351952530
  C   -0.25556619762360      0.59795952014146     -0.03504114447597
  C   1.12780134148278      0.48934006815244     -0.04413277624930
  C   1.06109029026972     -0.97767197895679     -0.02928794288408
  C   2.35777759432669     -1.47883911050605      0.00132258744182
  C   3.22534794175270     -0.31942683994906      0.00030771084961
  C   4.61807993675174     -0.38631984972476      0.01785057384671
  N   5.78192829825328     -0.44960255627239      0.03046210692426
  C   2.46885820880865      0.89687857322698     -0.02669665859498
  N   2.97009596410631      2.14368462648629     -0.07390052334189
  H   3.94949478127049      2.30217422923697      0.08231418214377
  H   2.35356880448214      2.92996466430297      0.03217136340146
  N   2.80066067309751     -2.75346135561490      0.08404992392499
  H   2.16192807212448     -3.49522588473405     -0.13631689426187
  H   3.77055388193467     -2.94161681929802     -0.10301859453501
  C   -0.35221091756327     -0.91561766460034     -0.02391818873241
  N   -1.33475293816551     -1.77118962051667     -0.00909050794408
  C   -2.62656496714659     -1.39539493571015     -0.00286463926488
  N   -3.47294875514883     -2.44317001820243     -0.00102281467833
  H   -3.07457101966643     -3.36389148395932      0.00816762512319
  H   -4.47102951430551     -2.33370071852068      0.01617607175921
  H   -3.31601645919237      2.01416374873981      0.01645135306128
