22
Coordinates from ORCA-job ./opt_b97-3c_parallel
  N   5.46233373003607      0.42279828787120      0.00003256213001
  C   4.30713614147200      0.28919247301960     -0.00021208615686
  C   2.91105301388861      0.12542308177640     -0.00012012013287
  C   2.24821579816606     -1.14363477615488      0.00004912596589
  C   0.90183561229003     -0.84249551732648      0.00017836654670
  C   0.73332391892695      0.59548483297685      0.00011482016953
  C   1.97417293007315      1.20345241518437     -0.00009558509344
  H   2.23748805181629      2.24797383639405     -0.00017346174450
  C   -0.69405409759737      0.43509710937805      0.00044999950139
  N   -1.71205084135699      1.25575796800238      0.00068111893002
  C   -2.98435394186050      0.80238053636615      0.00097647795876
  C   -3.50324766854560     -0.52265942816253      0.00111474940498
  C   -2.84072696469176     -1.73067621246250      0.00101323521212
  C   -1.47126251392602     -2.02679395064474      0.00073977205761
  C   -0.52118495667443     -1.03957010117387      0.00047114130213
  H   -1.16917262862422     -3.06501903771745      0.00074430665701
  H   -3.49624297038634     -2.59468206372660      0.00119223669881
  H   -4.58461256398639     -0.58367500530042      0.00135299660063
  N   -3.88308744525211      1.80453916672577      0.00119278036936
  H   -4.87179835821416      1.64100114067396      0.00160309435826
  H   -3.53995982711271      2.74837641302340      0.00123439668170
  H   2.74999803885945     -2.09708557622274      0.00006563938272
