23
Coordinates from ORCA-job ./opt_b97-3c_parallel
  N   4.01826439034321      2.11969218481962     -0.26417412943250
  C   3.13897441287091      1.37094396827912     -0.12430540806446
  C   2.14249720710345      0.40278441111894      0.03621327330892
  C   0.78637810095699      0.47287927270514      0.15803960130430
  C   0.32341695816751     -0.87542403003185      0.20994033325939
  N   1.30322160264404     -1.81707085245585      0.14888882795756
  C   2.40553262306519     -1.07457206270120      0.06199835053120
  N   3.64782093577277     -1.58629070844065      0.03370469176662
  H   4.41999847786232     -1.00221577273852     -0.23256902253244
  H   3.74870014631282     -2.57654086564493     -0.09975628193321
  C   -1.01093365547907     -0.45378560192695      0.10767129465629
  C   -2.32655095135613     -1.03326726441668     -0.04505344878953
  N   -3.45607732853403     -0.38717553823952     -0.07185913925017
  C   -3.65373075187820      0.96644969685931     -0.02257906587037
  C   -2.80959909247395      2.03873755567188      0.01369689250007
  C   -1.37880199842389      2.07058211099898      0.04857084405289
  C   -0.63914872192765      0.94925650630263      0.10336836042619
  H   -0.88649468090177      3.03319443610810      0.03787401982767
  H   -3.30263605597100      3.00288266750239      0.02175240955866
  H   -4.71029341312229      1.20868694372480     -0.03342648558853
  N   -2.34503388339287     -2.38367314156357     -0.18960376827360
  H   -1.52490378304838     -2.92560375300037      0.01560185199454
  H   -3.23860310878996     -2.84290678853081     -0.16588532660945
