24
Coordinates from ORCA-job ./opt_b97-3c_parallel
  N   -5.25549635468855     -1.46644481196151      0.00042141671492
  C   -4.23814481153353     -0.90642584729527      0.00026161022225
  C   -2.99043706768736     -0.23087385891875      0.00012261595900
  C   -3.06996738079080      1.16347330954251     -0.00019491925096
  N   -2.15111583355633      2.13364802480048     -0.00052887104886
  C   -0.83536777671595      2.03643574087053     -0.00047965746911
  C   -0.09228481919088      0.81377042178458      0.00021030528692
  C   1.25756306580700      0.39813914190531      0.00052942060829
  C   0.86206904946873     -0.96431240014937      0.00064090587597
  C   1.98813718236751     -1.75843751381991      0.00017459985563
  C   2.08637699524265     -3.16014736850307     -0.00011037558282
  N   2.16835610272415     -4.31850486113125     -0.00032141584121
  C   3.12441258855791     -0.84496115742420     -0.00011671930016
  C   2.67926325113816      0.47414940541400      0.00004060939348
  C   3.43517168906576      1.65668958761953     -0.00026359249710
  N   3.97743243933018      2.68470559001767     -0.00061385838317
  H   4.15400165278540     -1.16000763042022     -0.00039762301908
  C   -0.57277496744980     -0.54457569716285      0.00044075391484
  C   -1.82638946145361     -1.05364426710886      0.00035125599261
  H   -1.96533128271663     -2.12504346389506      0.00047898359238
  N   -0.12505055242248      3.18048597194942     -0.00108393048719
  H   0.87941402720719      3.18975622628571     -0.00100262769382
  H   -0.61822073669927      4.05611727019541     -0.00151827875717
  H   -4.08057948888946      1.55453303820521     -0.00025549338567
