22
Coordinates from ORCA-job ./opt_b97-3c_parallel
  N   -5.32295113828503     -0.31269873682256      0.00095604920634
  C   -4.16638878189936     -0.20550419516720      0.00067857212387
  C   -2.74923580302768     -0.07474087874879      0.00034200726977
  C   -2.27012426006312      1.24938929265257      0.00015397854695
  C   -0.96714559743306      1.72789961739509     -0.00015709257478
  C   0.16134721383018      0.93824978585684     -0.00030344111087
  C   1.58345671879554      1.04454466395610     -0.00070114650940
  C   1.71436129601167     -0.39157444178311     -0.00066282580742
  C   3.09765051231172     -0.64214426930765     -0.00136632818164
  N   3.78323571912980      0.55060387350453     -0.00178058848332
  C   2.88248593054392      1.55746625740755     -0.00141967008142
  H   3.22614631708845      2.58078171089238     -0.00164941793034
  N   3.78600591728907     -1.79530553389248     -0.00266374658857
  H   4.78904205589140     -1.76341408052374      0.00148715671196
  H   3.32728490444339     -2.68476414165244      0.00354755718877
  C   0.29860838852992     -0.54516659020319     -0.00029571746398
  C   -0.66995779300774     -1.52610610313056     -0.00010620988222
  C   -2.03778521948315     -1.28921798947509      0.00020862069476
  H   -2.66270217894831     -2.17309473988327      0.00034764428261
  H   -0.35150012363199     -2.56135546272027     -0.00025273255652
  H   -0.83619454188724      2.80270949478306     -0.00031100596810
  H   -3.04442717699841      2.00569477216222      0.00024658681355
