22
Coordinates from ORCA-job ./opt_b97-3c_parallel
  N   -4.51959610466218     -1.59426770990398      0.00469507091635
  C   -3.49757181154413     -1.04208861487012      0.00126776129689
  C   -2.23850690749328     -0.38583742378923      0.00349098753410
  C   -1.08682894839351     -1.23568202120538     -0.02300424679603
  C   0.17749168050730     -0.75784479954752     -0.01181664078947
  C   1.58908564538061     -1.21121873561379     -0.01474496017888
  C   2.02795554574052      0.16830923658647      0.02706277573005
  C   3.44923213297497      0.19405228105511      0.04704453524559
  C   3.83589992024467     -1.13170463305500      0.01463689927482
  C   2.67739750905337     -2.02506975073304     -0.02443858565218
  H   2.73404001523348     -3.10247170695119     -0.05279784382864
  H   4.85899151222166     -1.47686905287933      0.01997416482512
  H   4.11353953995405      1.04277013442662      0.08535987188519
  C   0.69383933966665      0.59736173214277      0.02789083667398
  C   -0.04545659145604      1.83316358073501      0.02642312171832
  N   -1.34970230462709      1.95921413180940      0.02588521436952
  C   -2.29511896854409      1.00099746398519      0.03298164321320
  H   -3.29627997799946      1.41450867826272      0.05216498323766
  N   0.69168251108335      2.97165256401779      0.05775628048199
  H   1.66908966353739      2.94011172746187     -0.16731532763150
  H   0.20531055204902      3.84003333808988     -0.08432484743403
  H   -1.25306128322724     -2.30292968552426     -0.04808375339207
