20
Coordinates from ORCA-job ./opt_b97-3c_parallel
  N   -4.56509334711179     -1.53445395741425      0.12711824501152
  C   -3.53073972508569     -1.00884094091002      0.07231888443930
  C   -2.25914911241547     -0.38398313107635      0.00540135274929
  C   -2.27269894708722      1.00254063186291     -0.04340129728159
  N   -1.29679722434987      1.92688574514389      0.02226490435833
  C   -0.00271525884722      1.75295801745421     -0.06962817693294
  C   0.64497192727113      0.51818785432229     -0.45826249092339
  C   1.96221676826466      0.10212822769082     -0.69070089277246
  C   1.57218784103093     -1.21713983082486     -0.27859836673600
  N   2.56014134909827     -1.79719661128382      0.35439087704748
  C   3.58782244719556     -0.85247778216787      0.17141674077675
  N   3.27471674906882      0.31490080349958     -0.38496214330606
  H   4.58939134203626     -1.07723041729483      0.50767354405697
  C   0.12347134402050     -0.81083903849996     -0.24300366213232
  C   -1.11936523235705     -1.25708029987946      0.00962817687671
  H   -1.28327409997592     -2.30517301943926      0.21477197847471
  N   0.81451262472520      2.79180502454064      0.17343811932277
  H   1.81269415576681      2.69154689003815      0.11408391448873
  H   0.42165745529607      3.66759372932110      0.47105427510982
  H   -3.25939178624397      1.44908908571712     -0.07116902942763
