25
Coordinates from ORCA-job ./opt_b97-3c_parallel
  N   4.02123473884941      1.51373628645293     -0.08908211539681
  C   2.96477568519125      0.61946008881966     -0.03591541679800
  C   1.67297698269970      1.18287342089075     -0.03199300968365
  C   0.50077742882751      0.48110975189965     -0.02970963688758
  C   -0.90814299221745      0.70416122284531     -0.01528438288228
  C   -1.16046967474599     -0.71818925041516     -0.01741938485889
  C   -2.55729366484518     -0.85845698091771      0.01555506518147
  N   -3.14886484881328      0.36662800654345      0.02171201955198
  C   -2.16767146517671      1.31502415748213      0.00024144412948
  N   -2.51028195862959      2.63775661722072      0.06127034773055
  H   -3.46398780208576      2.82855737861028     -0.19905632076089
  H   -1.84629289641586      3.28505988508897     -0.32563924426482
  N   -3.32905616151461     -1.98514688992019     -0.02527484830345
  H   -2.90774587983046     -2.82687237056147      0.32574405633283
  H   -4.28232058498072     -1.84856103289043      0.26788801702429
  C   0.23391602907306     -0.99905210174024     -0.02775559049693
  C   1.12246258575999     -2.04284673264647     -0.03890381319755
  C   2.51242749818941     -1.88478790940560     -0.05080813064100
  C   3.30253754953464     -0.74733231836725     -0.04694472564720
  H   4.36989265585070     -0.94188206480891     -0.06229512253899
  H   3.07522264104354     -2.81170220674980     -0.05729684546223
  H   0.73610884818123     -3.05530048419099     -0.04003029187882
  H   1.61152771408682      2.26676939285254     -0.03366220697147
  H   4.91504803070637      1.16474512408887      0.21113337817334
  H   3.83560981086196      2.44294253541896      0.24673613864662
