24
Coordinates from ORCA-job ./opt_b97-3c_parallel
  N   4.59768168082496      2.19626696824232     -0.00477677326233
  C   3.69093214477790      1.46937607553771     -0.00020833133094
  C   2.56840737278866      0.60083275631766      0.00455360561615
  C   1.27663598705233      1.24706784216187     -0.03143600954652
  C   0.11591038279494      0.56881760403592     -0.03441469425703
  C   -1.36032966574898      0.80431129631599     -0.04964889682478
  C   -1.62737118873300     -0.60845195712490     -0.01439599986625
  C   -3.02847059273314     -0.72175931943038      0.02304483327386
  C   -3.45955888719421      0.61222735007741      0.00280472012588
  N   -2.40683420567666      1.57145994592718     -0.03747398107629
  N   -4.72290566680106      1.10083732270084     -0.02777268760355
  H   -4.82121954705297      2.07525297846244      0.19863984639165
  H   -5.47583548928963      0.50612983758840      0.26739328239683
  H   -3.66460478618408     -1.59041877058077      0.05877879203665
  C   -0.23979494633006     -0.84099909024942      0.00691984044883
  C   0.62518302228473     -1.98831278064236      0.03940171671596
  N   -0.01328211140075     -3.19903647857558      0.11265438952998
  H   0.51901981857778     -4.02571036944156     -0.09664262278336
  H   -0.96456243601595     -3.22783318605081     -0.21169250090914
  C   1.99373611932504     -1.88402727900817      0.04709372009563
  C   2.84425936330457     -0.74468780639727      0.04052570914416
  H   3.89689955891729     -0.99263839740962      0.05931891989114
  H   2.52941215465323     -2.82726692658422      0.06781284901682
  H   1.25741857535906      2.32639763512733     -0.05574419512331
