25
Coordinates from ORCA-job ./opt_b97-3c_parallel
  N   -5.12490067108331     -0.48536173558837      0.03441883231092
  C   -3.96444418447063     -0.56408419335969      0.01893648556446
  C   -2.54807036413036     -0.58816817800303      0.00107783850644
  C   -1.93440389864079      0.70797560024888     -0.00593262690022
  N   -2.74660263963562      1.78098654869328      0.01733268864249
  H   -2.37220456919460      2.71295750656613      0.00575428195477
  H   -3.74597841388669      1.67566297402898      0.03714183288395
  C   -0.53190144106609      0.96289260675281     -0.03212464073640
  C   -0.08118901874619      2.30142069878520     -0.01048901673010
  N   0.31893769955102      3.39331081344703      0.01270674799910
  C   0.45966551473356     -0.00111540186857     -0.07358047200183
  C   1.86806765211757     -0.04672514937069     -0.09890857317210
  C   1.84279302203344     -1.50059526997986     -0.06049766680130
  C   3.17290305683492     -1.90164423901712      0.02898715652848
  N   3.98462102580983     -0.81580351719675      0.04402051418199
  C   3.21708096735916      0.32015341845452     -0.02763995271213
  N   3.79696640710952      1.53745857215111     -0.06955057838452
  H   3.23387795467996      2.35386293553049      0.08788165120697
  H   4.76913712959436      1.59421084751215      0.17759929474839
  H   3.60163933597826     -2.88972007714401      0.09102153133625
  C   0.41794086462643     -1.49032312758401     -0.05026318669271
  C   -0.67131798956870     -2.32414514900494     -0.00956616867003
  C   -1.98493719127184     -1.87342336613333      0.00563310219296
  H   -2.73067629226786     -2.65799013643311      0.02679574590337
  H   -0.51208622306533     -3.39381267038709      0.01024948724080
