18
Coordinates from ORCA-job ./opt_b97-3c_parallel
  N   4.42750930032947      1.48049648887920      0.02347965912318
  C   3.41740859263372      0.90889284183664      0.02059146121178
  C   2.17283874442028      0.22244101171711      0.00621397498233
  C   1.00042053994578      1.04938241283813      0.02311362556390
  C   -0.23019444208363      0.54222426757336     -0.19545286047787
  C   -1.67326679855381      0.91076585515763     -0.25670011877644
  C   -2.03550304065797     -0.44156363491850     -0.55251519826583
  N   -3.35928094347979     -0.62989008699932     -0.30616177979670
  C   -3.70079781198336      0.58428751851000      0.12578661566274
  N   -2.68991886937333      1.55321357052808      0.26594926086039
  H   -4.71815661490656      0.83014782013086      0.39216612369269
  C   -0.70264621967453     -0.82872340661323     -0.32685728945351
  C   0.01538921536941     -1.99276455957523      0.11211010769510
  N   1.30211845597854     -2.10357556994071      0.18952494042720
  C   2.25566601058577     -1.15936196564993     -0.01412552286578
  H   3.25143989120693     -1.57620201842519     -0.08951445515055
  H   -0.56454321268188     -2.86230685557287      0.40569924888565
  H   1.12775976292498      2.11069481082393      0.17633993848175
