25
Coordinates from ORCA-job ./opt_b97-3c_parallel
  N   5.43630757437888      0.10420409882262     -0.04222204004436
  C   4.27331897612637      0.15439073158831     -0.01531958934738
  C   2.87415813798890      0.12476088800452      0.00773938564295
  C   1.99959410399632      1.24762075135844      0.00976094298038
  C   0.72329182852423      0.72124558750468      0.01175621691495
  C   0.79712525505094     -0.73736971655612      0.01275462937228
  C   2.13455219715123     -1.12047580030781      0.00908839482982
  N   2.69946314315921     -2.35378315377054      0.06519800913112
  H   3.67551218100983     -2.43259683066395     -0.16657970157765
  H   2.13423577771615     -3.13839183457397     -0.20397416953584
  C   -0.61981900527733     -0.82431511955995      0.00438977508093
  N   -1.48744049561781     -1.80297060623665     -0.00299371950749
  C   -2.81355898836104     -1.56567701045550     -0.00706595973494
  N   -3.54540494955227     -2.69906786283271     -0.01616042067947
  H   -4.54683969380870     -2.69176632093187      0.01384129434457
  H   -3.06131374441489     -3.57791975327657      0.01201787813305
  C   -3.54227837272063     -0.34044666193940     -0.00822125792326
  C   -3.11221972667821      0.96207931562446     -0.00519164970350
  C   -1.80319608109467      1.49673756684754      0.00172983039662
  C   -1.63157855547704      2.90077146717469      0.00256376623301
  N   -1.47595956066095      4.05216340817685      0.00275299723986
  C   -0.69110104153007      0.67468080794670      0.00702710402873
  H   -3.90272287498648      1.70190404996495     -0.00776108633043
  H   -4.61834363525645     -0.46289108476088     -0.01430852402133
  H   2.32062603423451      2.27591575145213      0.00347957147736
