24
Coordinates from ORCA-job ./opt_b97-3c_parallel
  N   5.30409367485064      0.03230441573043      0.02434173834444
  C   4.14832461524437      0.17864431285934      0.02893693466221
  C   2.75217537124205      0.26763969601775      0.02383941818173
  C   1.90725217871183     -0.90476525390958     -0.00668720526982
  C   0.60613621502871     -0.41012798071249     -0.02735791423358
  C   0.65779488124229      1.04277217362497     -0.01306909071196
  C   1.97364685733672      1.46050839951572      0.02216602463811
  H   2.38192352239859      2.45750611911645      0.03961034938340
  C   -0.76889396817553      1.10368415921916     -0.02175445687514
  N   -1.67255426530325      2.04790702228136     -0.01416936682639
  C   -2.98058076379408      1.72491990352194     -0.02220894563111
  C   -3.66801378213370      0.52871415296280     -0.02558224002978
  C   -3.21799980099059     -0.81792068731102     -0.02364220478370
  C   -1.88148715791547     -1.25918006730947     -0.02811627836205
  C   -0.81653031943513     -0.39993130793251     -0.03342155425451
  H   -1.70090195486962     -2.32810412258993     -0.02511914595086
  N   -4.18585178073556     -1.77261137953245     -0.04914466453531
  H   -5.14089568946974     -1.51946955176041      0.12427352039386
  H   -3.94627163093897     -2.73161651166028      0.12124783486018
  H   -4.74611493246217      0.64440055541430     -0.03285750539615
  H   -3.62324343850284      2.60068643322091     -0.02139486794592
  N   2.36866484626078     -2.19015830747445      0.05285086577277
  H   3.34265608560091     -2.32405475402050     -0.16671042468248
  H   1.77165470830980     -2.90206151627203     -0.32892895594792
