22
Coordinates from ORCA-job ./opt_b97-3c_parallel
  N   4.15889234127110      2.15504412525567     -0.52447784324961
  C   3.24053620038651      1.46716725969157     -0.32509312345684
  C   2.16267954614830      0.58897407542317     -0.08593943685914
  C   2.51687458330954     -0.89401147574150      0.02963264622210
  N   1.79386000368487     -1.95335142715354     -0.04681784913368
  C   0.41929775256047     -2.04406701294534     -0.16746180274769
  C   -0.45442879632584     -1.05168385000014      0.01106909021237
  C   -1.90249952015255     -0.75054978841556      0.02434611141619
  C   -1.63243345759670      0.64938894690790      0.28217450237634
  N   -2.78152110928408      1.35984951415238      0.26894821524801
  C   -3.65842123405058      0.37340496126029      0.01409643225794
  N   -3.16513668668341     -0.96877705384498     -0.17773998369396
  N   -4.96813363707568      0.56270413368604     -0.08981721048998
  H   -5.56188988603611     -0.21070469121258     -0.32537945396574
  H   -5.35403078349372      1.48407482869203      0.00653092470747
  C   -0.25904803278276      0.42133869293829      0.22536135673581
  C   0.93379987379540      1.15313874329738      0.09516193083371
  H   0.86962323743297      2.23434156766097      0.08751730507474
  H   0.06076725345168     -3.04609287325344     -0.36478953660832
  N   3.83530593402164     -1.07050564705044      0.31345736881803
  H   4.51323731103773     -0.34841234945999      0.14627131761523
  H   4.15817493808123     -2.02222438108818      0.33366996268701
