20
Coordinates from ORCA-job ./opt_b97-3c_parallel
  N   4.95437610292605      0.55559199566076      0.00013397686197
  C   3.79529249211636      0.50015792545999      0.00008635557942
  C   2.37317548130851      0.43891192341498      0.00009900114572
  C   1.82500330506161     -0.85700904332148      0.00049451800487
  C   0.49021757876290     -1.25366617684198      0.00051920195426
  C   0.17137438070077     -2.63502405023388      0.00109126697347
  N   -0.12239646161548     -3.75755116669567      0.00125608211469
  C   -0.55702142558197     -0.32649431801028      0.00000841171159
  C   -1.96921724204685     -0.26987882469634      0.00016271324896
  C   -1.93850600076581      1.18202135983155      0.00003152602514
  C   -3.26158938809412      1.59437712129534      0.00161051423483
  N   -4.07784503916493      0.49476365720722      0.00257270342615
  C   -3.31937248165401     -0.62786854406070      0.00175711456651
  H   -3.78070302506394     -1.60204365831161      0.00237922793686
  H   -3.68795052870947      2.58422651930360      0.00217626647892
  C   -0.50595822408686      1.15524577923130     -0.00019463240603
  N   0.45138981951585      2.05611106323455     -0.00020618184329
  C   1.73260406954930      1.69870148910874     -0.00019544450630
  H   2.41405249194520      2.54272702412897     -0.00039604933857
  H   2.55011012899692     -1.65993254010507      0.00084074893080
