24
Coordinates from ORCA-job ./opt_b97-3c_parallel
  N   -4.10366119540483     -2.10536854733122     -0.08941713914813
  C   -3.11504049256973     -1.49069686733242     -0.04493955720386
  C   -1.94736630015273     -0.70367506053136      0.00228305829702
  C   -2.14655271346898      0.69208273950660      0.04975212917871
  N   -1.25218677638107      1.70749680594355     -0.03194362285875
  C   0.05199888421120      1.69725862436810     -0.01737907669581
  C   0.89977462384187      0.54630069625202      0.17029378377791
  C   2.26716301394820      0.25728686696190      0.27356903175348
  C   1.96858383914161     -1.15799259128532      0.17238491487361
  C   3.12034531870903     -1.83388422004403     -0.06561607529503
  C   4.18902956376613     -0.82677701505668     -0.04345928671682
  C   3.67566930023250      0.43813428899702      0.14173226385794
  H   4.25120742733282      1.34868289597494      0.20190154224193
  H   5.23703491853614     -1.05970046462202     -0.16011119452178
  H   3.27216043754520     -2.88280660282138     -0.27131643777898
  C   0.50832688846409     -0.84058192635090      0.12263668138102
  C   -0.70653764260873     -1.41606381281297      0.01880798530015
  H   -0.77277971850849     -2.49285616618714     -0.04964880352213
  N   0.68697845599029      2.87650773227960     -0.20680832583941
  H   0.14303751013587      3.72038524110440     -0.22935775851422
  H   1.67883749887595      2.94431627411557     -0.07735511511342
  N   -3.42059097720888      1.16986859069338      0.19187859035408
  H   -4.19820759847086      0.54996529920718      0.04435994784382
  H   -3.55271706195663      2.13041686727117     -0.06803291325134
