25
Coordinates from ORCA-job ./opt_b97-3c_parallel
  N   1.80246278013882      3.19036722583411      0.02904815474689
  C   1.73780044664039      2.02979018108046     -0.03121913591640
  C   1.62509855536722      0.62499305803673     -0.09343743348634
  C   0.35234079273619      0.09457380225477     -0.18776843976768
  C   -0.98049690368003      0.50566910672209     -0.22670523633435
  C   -1.46220203439583     -0.87091280177866     -0.17611579785528
  C   -2.85061854051645     -0.77164161152382      0.00830829123251
  N   -3.22749422937870      0.53952413012730      0.05475878072400
  C   -2.12017011792018      1.31706477049985     -0.06982099190668
  N   -2.21555403870487      2.66485028674915     -0.08686389342827
  H   -3.07036041073196      3.06740212546591      0.25529841659970
  H   -1.37818452361748      3.20295552837605      0.04871411480988
  N   -3.77149580895530     -1.74711774431090      0.19106297743799
  H   -4.73536133989620     -1.47938508629073      0.09279349141984
  H   -3.53668353076141     -2.67600078296640     -0.10722879214862
  C   -0.13593185517426     -1.35849769358570     -0.14767474917091
  N   0.46569068819643     -2.51192633586137     -0.06441318851376
  C   1.81091822852536     -2.56146372536821     -0.02437016504555
  C   2.80782982022514     -1.59915487470411     -0.01083734168696
  C   2.79145466502894     -0.18815627893888     -0.02442730992332
  N   3.99725423220385      0.44685194133632     -0.00244539187172
  H   4.03279413572788      1.43759852806476      0.16340328035741
  H   4.81199467229727     -0.07044575188575      0.27079188104242
  H   3.80518837234757     -2.02407830109410      0.02502334414072
  H   2.18810419046684     -3.57885289253583      0.01283557544682
