26
Coordinates from ORCA-job ./opt_b97-3c_parallel
  N   4.51851515456199      0.31460181084178     -0.19574195432599
  C   3.11188446173771      0.36284734224489     -0.07879820576148
  C   2.51447139215554     -0.94653019832491     -0.10176375729705
  C   1.20982458954417     -1.35302223118351     -0.06458521590757
  C   0.10339231181703     -0.44621603740890     -0.00231589907963
  C   -1.29788120010256     -0.53065908841246      0.04459022842916
  C   -1.37966325120229      0.91510606454495      0.06610703534339
  C   -2.67962746816187      1.29419528702742      0.03538276549296
  C   -3.45121033052917      0.04121774212906     -0.00193017144549
  N   -4.82939644624878      0.03440653912775      0.03919356755041
  H   -5.27551762396112      0.83822271682193     -0.37089980452765
  H   -5.26424397387563     -0.82435279514221     -0.25503960645184
  C   -2.60533532460467     -1.06584246607520     -0.00408675162648
  H   -2.92527996380989     -2.09609963746272     -0.03584693702348
  H   -3.12162772441674      2.28044626725115      0.03387895123219
  C   0.10957231165600      1.00352397864524      0.03105885623336
  C   1.10961433937637      1.90932054318547      0.00512808687241
  C   2.49896293305904      1.58669768172010     -0.02121879505920
  H   3.16597933857020      2.44204059425657      0.00385543103784
  H   0.85346365576436      2.96066365206353      0.02893056968494
  N   0.86632471209205     -2.69083877925912     -0.15993079483391
  H   -0.02555727846285     -2.92463653658773      0.24395097023965
  H   1.58423287375171     -3.35245881713989      0.08326188918939
  H   3.23964161647864     -1.75113766225287     -0.18737645431177
  H   4.95890754263857      1.19748666044816      0.01128961833573
  H   4.94266422167218     -0.41031974995858      0.36412131451006
