23
Coordinates from ORCA-job ./opt_b97-3c_parallel
  N   2.94030833801418      2.45816785786465      0.05059425823088
  C   2.12377099507906      1.36773104751876      0.02251545136409
  N   2.80048278872789      0.21928592463788      0.01226865513017
  C   2.35591887422890     -1.03885462621590      0.00909505861934
  N   1.12623081790217     -1.61854531624184     -0.01172895485689
  C   0.05740674081925     -0.87615967486395     -0.00249026926124
  C   -1.35129902781280     -1.08842305888662     -0.01178044217641
  C   -1.57848864191811      0.35066002417233      0.01723004993829
  C   -2.96432917453772      0.51363361396142      0.00529307016013
  N   -3.73367689157144      1.65361913814047     -0.03731498142399
  H   -3.34562862677406      2.45329489184467      0.43325824278265
  H   -4.69589095127265      1.48576252056653      0.21042070383773
  N   -3.56301284858890     -0.71350330953944     -0.03500736903384
  C   -2.60617197295644     -1.67928030101678     -0.04977400730418
  H   -2.89038892553350     -2.71922321654597     -0.08055721304008
  C   -0.18046986980406      0.61259946656763      0.02760303182749
  C   0.72951684325863      1.62399060655184      0.03887198857252
  H   0.39899762051102      2.65575600710964      0.05879639102487
  N   3.34662205561449     -1.95721293904790      0.00736235485849
  H   3.10718639725659     -2.92863551147314      0.06874463697261
  H   4.29874991496989     -1.65665642889064      0.09211151809261
  H   3.91412548567659      2.29331112390834     -0.13162701507087
  H   2.57487464651100      3.36451168217803     -0.17482574304436
