27
Coordinates from ORCA-job ./opt_b97-3c_parallel
  N   4.75270304370770      0.98008683156753      0.00463164626059
  C   3.60652789585976      0.76602991349681      0.00306522459012
  C   2.22228012412077      0.51249774365813      0.00111943699880
  C   1.40388078718027      1.69334693328932     -0.00357819710815
  N   0.06707759962560      1.85256436953614     -0.00106386553074
  C   -0.74851574758338      0.83413049330549      0.01170624006348
  C   -2.15594625763365      0.66823891023213      0.02166771745978
  C   -1.98461390892808     -0.79100771091600      0.02270386948624
  C   -3.23719301715080     -1.38520712577693      0.01177853897880
  C   -4.16156435085826     -0.32100345203735      0.00264053949712
  C   -3.51583513676771      0.95609430005286      0.00367171830911
  N   -4.15148278105489      2.17676968838581      0.06226344784189
  H   -3.59943601152617      2.95937092890407     -0.24492446434612
  H   -5.08373639153740      2.19988760462868     -0.31585096368652
  H   -5.23573718834568     -0.44639752759708     -0.00124518450962
  H   -3.49053010321661     -2.43306936753527      0.00563729686799
  C   -0.58401562252520     -0.65124622887230      0.01688099260990
  C   0.56051056718606     -1.42903028395365      0.00226918800751
  C   0.42671638993664     -2.83172309597427     -0.00460003047447
  N   0.35383608553558     -3.99312299051772     -0.01057408037605
  C   1.87430676729180     -0.87473271183456     -0.00191929706716
  N   2.89026434680273     -1.75757347910664     -0.00973887766986
  H   2.70592460684494     -2.74526565184452     -0.00421183843153
  H   3.84848854346816     -1.45684344029851     -0.00970788157202
  N   2.04527681810071      2.87809009017703     -0.01464552211107
  H   3.04553017759508      2.96064657585908      0.00171656795364
  H   1.47763338777221      3.70495796927120      0.00498415995826
