25
Coordinates from ORCA-job ./opt_b97-3c_parallel
  N   -2.16214392123890     -3.06145945376421      0.01032075748745
  C   -1.84168851057671     -1.94240900821023      0.01648005609782
  C   -1.51128169148386     -0.57165476381253      0.02031646928419
  C   -0.16145813528335     -0.22902687580905      0.01242668986703
  C   1.09305543610741     -0.87965744242118      0.00590703734928
  C   1.77756911015878      0.40293819377708      0.00199305029180
  C   3.15026125237244      0.17109979844462     -0.00474309945742
  N   4.19258998786016      1.07110448613480     -0.07338886490675
  H   3.98780585401451      1.99224171493243      0.27468530751315
  H   5.07785147909473      0.73172411540738      0.26449895063458
  C   3.29109412292646     -1.25651327400213     -0.01432890122696
  C   2.04177938341181     -1.89995927927305     -0.00696944393056
  H   1.88847276488810     -2.96750088390861     -0.00816384445283
  H   4.24496537672121     -1.76482449885831     -0.02942618747978
  C   0.52308745750398      1.08757112178405      0.00501965988082
  C   -0.00198923634817      2.35442354067649     -0.00694071684113
  C   -1.37703520506451      2.61542167339189     -0.00522871010179
  C   -2.47543228822714      1.77998240956854      0.00634561956123
  C   -2.58285448827059      0.36954203739423      0.02191163620193
  N   -3.84083103142303     -0.13449703328288      0.06496242464042
  H   -3.99981147730097     -1.12203546102587     -0.03363267238139
  H   -4.62779620707877      0.47100220191877     -0.07041986737665
  H   -3.43138924354051      2.29080940902387      0.01383795156660
  H   -1.63488520249185      3.66889425397594     -0.01702995419567
  H   0.67104907626874      3.20166341743789     -0.02265979922536
