22
Coordinates from ORCA-job ./opt_b97-3c_parallel
  N   -5.52676304098092     -0.00074364354488     -0.00080226343861
  C   -4.36501571989478     -0.00058457266530     -0.00059325822719
  C   -2.95913897832582     -0.00039566126098     -0.00034553925090
  C   -2.15676922412282      1.18186207430215      0.08047362717924
  C   -0.85557361152793      0.72570577521429      0.04979826703849
  C   -0.85536347368748     -0.72593871381698     -0.04975244529200
  C   -2.15642585473647     -1.18244031833876     -0.08088621537595
  H   -2.53924979417941     -2.18717290614936     -0.14166989552102
  C   0.57059152392224     -0.72823833825960     -0.05177475843898
  C   1.63423068374640     -1.63194863873118     -0.04014187779735
  C   1.36013652230864     -3.01922117671798     -0.06335195529720
  N   1.12224540528037     -4.15523365906091     -0.08763134335853
  C   2.95888136221589     -1.19372387192889      0.15928067203118
  N   3.49453617379031      0.00046869608331      0.00072420139138
  C   2.95861078699980      1.19451695556107     -0.15801195153961
  C   1.63377820671953      1.63238443306321      0.04097779298657
  C   1.35930146400002      3.01958315953514      0.06408878271414
  N   1.12109864387412      4.15553211545672      0.08828305946588
  C   0.57037884077717      0.72838663786280      0.05227915808152
  H   3.66748818644905      1.95911591601266     -0.46049331059250
  H   3.66786587549116     -1.95813276670325      0.46199151014747
  H   -2.53988079461891      2.18649324688654      0.14112006819387
