22
Coordinates from ORCA-job ./opt_b97-3c_parallel
  N   3.67227381961279      2.00704068225346     -0.00030003135408
  C   3.10574614039363      0.99044704908835     -0.00013979354007
  C   2.32835078873445     -0.17508112433632      0.00004375520725
  C   0.90770836857793     -0.22910143251748     -0.00020525046436
  C   0.49738066249770     -1.59440786362524      0.00021151179525
  C   1.60699861783090     -2.39987988918271      0.00073691670156
  C   2.74471859548751     -1.51301636434552      0.00058299913487
  H   3.77476897095759     -1.83134629811290      0.00083809052119
  H   1.67358581057891     -3.47673188401759      0.00122135850732
  C   -0.93410732655899     -1.14864507081222      0.00026312018209
  C   -2.20021472607001     -1.64749202735449      0.00059005397663
  N   -3.35611923271803     -0.93671001013511      0.00054880325009
  C   -3.45840798956134      0.37025876961741      0.00030709694427
  C   -2.52905181864555      1.44217782838185      0.00007497819008
  C   -1.14455818434227      1.43375480251630     -0.00008632760290
  C   -0.43318708699178      0.20224361206320     -0.00008718911686
  N   -0.40380818322633      2.56675318415283     -0.00032475245406
  H   0.59968249638923      2.53137673788288     -0.00019398335890
  H   -0.83215781072581      3.47298009450863     -0.00007581480098
  H   -2.99627200058563      2.42185702474343      0.00000454712195
  H   -4.49005797857241      0.71394152870869      0.00032103855256
  H   -2.33250241956253     -2.72314230477746      0.00090567300709
