23
Coordinates from ORCA-job ./opt_b97-3c_parallel
  N   4.54285804521948      1.02415149050551      0.06004665652264
  C   3.48302929917376      0.54646556058106      0.03487927553641
  C   2.16301908078278      0.03554318536571      0.00302575018238
  C   2.06041466808979     -1.35189109212384      0.01374970189625
  N   1.03364458522305     -2.20866712828974      0.07685292540799
  C   -0.24507825961772     -1.92423552812375     -0.04443615069401
  C   -0.78317097358336     -0.64285446890019     -0.40950055707687
  C   -2.06914789103224     -0.09958725724921     -0.65014688510638
  C   -1.56899826790120      1.22026468044407     -0.39466923573121
  C   -2.62968024755967      1.90115291003421      0.14384742647902
  C   -3.73710551778901      0.96388193532712      0.06671690307015
  N   -3.39221915228135     -0.25448021932251     -0.35852058361926
  H   -4.76341635847361      1.18544731913147      0.32661060073610
  H   -2.67509811968691      2.88446098446831      0.58708299971078
  C   -0.18145780861891      0.63285997674570     -0.26981744251230
  C   1.10933119126414      1.02189163006419     -0.03956871312354
  N   1.40300702327905      2.34209879666940      0.19347464277703
  H   2.36257376483611      2.62913991645665      0.09134019665964
  H   0.73561855327287      3.00881746498818     -0.15599404295404
  N   -1.14328149067755     -2.90438650228976      0.15341443133919
  H   -2.12927004629833     -2.71430554712510      0.10243843855822
  H   -0.82493890861361     -3.81259457166596      0.44186275508177
  H   3.01776015089245     -1.86047769929155      0.01791014576008
