25
Coordinates from ORCA-job ./opt_b97-3c_parallel
  N   -4.94099114842931     -1.48449883071322     -0.10752975151342
  C   -3.86277685765090     -1.05356230583507     -0.01846636189806
  C   -2.57153636489956     -0.48898502587466      0.01531251292391
  C   -1.48479593662627     -1.41126468668805      0.03895696007150
  C   -0.18383738664943     -1.06402518638197      0.13971864544537
  C   1.20917247560623     -1.64045879988631      0.17977064952909
  C   1.73704803940994     -0.30982208114567      0.26662654558764
  C   3.15396024556975     -0.36847351889748      0.10189724270802
  C   4.02843285572982      0.72704302442538      0.10369225446657
  N   4.69162575535422      1.68265087864484      0.09448604993388
  C   3.44866157707953     -1.71998645178315     -0.07297542402500
  C   2.23189252876761     -2.51217517633009     -0.05877842490895
  H   2.19399527556456     -3.57592489917547     -0.24150550159014
  H   4.44401325975514     -2.11666686005765     -0.19942969130845
  C   0.44278587858906      0.22496491934988      0.17305685965568
  C   -0.16897930648401      1.51544571536897     -0.00272227763698
  N   -1.45277526750124      1.75943455503255     -0.04272868917560
  C   -2.51345752346167      0.92596197970974      0.03782575387753
  N   -3.68405539185133      1.62012707454120      0.14142604685026
  H   -3.63803473932567      2.60167081425362     -0.06257274034906
  H   -4.56535132274718      1.15547834843194      0.00990884357856
  N   0.67523776395557      2.55626495462678     -0.14131895363485
  H   1.67201279533841      2.43945662345354     -0.09599903108100
  H   0.30000624450718      3.48218435083394     -0.24490387289025
  H   -1.74492247180037     -2.45875264310357     -0.01974669771624
