24
Coordinates from ORCA-job ./opt_b97-3c_parallel
  N   4.04945019847286      2.33834364216424      0.15342133779071
  C   3.19942736258144      1.55114300767428      0.06413892365954
  C   2.17426474192681      0.56977701603120     -0.02139193452869
  C   2.63631753711406     -0.83624683852374     -0.04616913042131
  N   4.01672413798685     -0.96550309118587     -0.20382255937415
  H   4.36760781035287     -1.89295048551801     -0.03251643536328
  H   4.58686612609322     -0.26701569404945      0.24698583803376
  C   1.86143124850020     -1.95716749613580     -0.00278165767482
  C   0.43473191401858     -2.13607169131641      0.00501251545117
  C   -0.45918480767182     -1.13963883913856     -0.04826945317136
  C   -1.93136615042823     -0.88615384441727     -0.05326705098102
  C   -1.67063347559803      0.52899073061713     -0.12761630316254
  N   -2.78608724444221      1.30263290108024     -0.09344350784721
  C   -3.75186633633193      0.38349171739452     -0.00214410378091
  C   -3.27296059101482     -1.02405746969534      0.04009105947402
  H   -3.90335969915424     -1.89564414419271      0.13073281625224
  N   -5.06011743659664      0.72219079210996      0.00258936592978
  H   -5.27567134767216      1.69508756562919      0.13733394351434
  H   -5.73506694100715      0.06390945211097      0.34569925515604
  C   -0.28704111510217      0.32073641748654     -0.09986013643073
  C   0.90511403373502      1.07603659123617     -0.04764565386211
  H   0.80546478610842      2.15340096911811     -0.01803433548789
  H   0.07964732555717     -3.15648483273713      0.05794007147812
  H   2.42066637097879     -2.88683948244324      0.00163963624244
