20
Coordinates from ORCA-job ./opt_b97-3c_parallel
  N   3.16659423909676      1.70802180551695     -0.08477660432205
  C   2.45970216989567      0.54014807812715     -0.01992796093540
  C   1.07011058776426      0.34857165481898     -0.00866321337711
  C   0.80681045785892     -1.08193017745473     -0.00108467470778
  C   2.02411755460179     -1.76091889717525     -0.01568128417270
  C   3.02416272737427     -0.77394163102191     -0.02776239987483
  H   4.08629518179011     -0.97242086618703     -0.04401913992816
  H   2.20337640843213     -2.82470847074749     -0.01529359693133
  C   -0.58796004989053     -0.83476329872366      0.00812569824339
  N   -1.69324688856864     -1.55362342270721      0.02821328937726
  C   -2.89115869515436     -0.95589555666825      0.03717644998834
  N   -3.32385819993602      0.30658439821124      0.00295037936233
  C   -2.60056663170242      1.42952464964122     -0.03094076738551
  C   -1.22830368479832      1.67051622895225     -0.02378966430987
  C   -0.31266648874379      0.63837522601921     -0.00322862788559
  H   -0.89762551926170      2.70177373432678     -0.04922045767580
  H   -3.22196885758768      2.32237086815176     -0.06867363992131
  H   -3.70889852346388     -1.67003673126886      0.07595902477333
  H   2.69406188211405      2.54393021985022      0.21052397555424
  H   4.13276500557916      1.67481981463874      0.19114742692885
