25
Coordinates from ORCA-job ./opt_b97-3c_parallel
  N   -2.83149331204650     -2.59911208926363      0.09987820402038
  C   -2.08352280488096     -1.44601836391030      0.04892925253544
  C   -0.67983562898170     -1.63029443100231      0.04177882837620
  C   0.19756338068507     -0.58779301909771      0.03912722379487
  C   1.59719376334216     -0.31112606076364      0.01982142848901
  C   1.34672853618657      1.12363874509206      0.01200332043694
  C   2.56619370170443      1.79268730652353     -0.02514952777983
  C   3.55107990875011      0.78615129096648     -0.03440515781232
  C   2.97121067614153     -0.52061366742701     -0.00310994094646
  N   3.67967226032127     -1.71497996213750     -0.07186500263022
  H   4.62030097989094     -1.65170812034894      0.28400149125016
  H   3.19942670159436     -2.49574871437227      0.34492794418865
  H   4.61680620774016      0.96940530088302     -0.06552083039186
  H   2.75923877873093      2.85396511793355     -0.03946368838941
  C   -0.05394819552443      0.89232039208987      0.03712017330969
  N   -1.12820905700737      1.64206601338540      0.04511720453619
  C   -2.35992062523518      1.09450389158168      0.06222993108191
  N   -3.33722263511885      2.05077605879311      0.12315265899928
  H   -4.27576995140485      1.81817215248783     -0.14448173809099
  H   -3.02941504859107      2.98524438626050     -0.08145358945745
  C   -2.79523095648450     -0.24340344988107      0.05337250255710
  H   -3.87333116550052     -0.35915734109131      0.08913134949390
  H   -0.30444138602522     -2.64700005497374      0.04011969519153
  H   -2.38399177808460     -3.44837330247858     -0.19500647783343
  H   -3.79940923480177     -2.53782245784895     -0.16156923032928
