28
Coordinates from ORCA-job ./opt_b97-3c_parallel
  N   -2.02767134172213     -4.10218759393405     -0.36885654172858
  C   -2.20559828801601     -2.97608461288481     -0.13637216856105
  C   -2.28633770549029     -1.60320620988651      0.14499179443403
  C   -1.25909872050655     -0.84931907160241      0.75161302682581
  C   -1.64706663727514      0.50891018262720      0.74534426400350
  C   -2.92001696062624      0.60301253850639      0.13908052017209
  C   -3.57231563047063      1.81081431037757     -0.15352257079447
  N   -4.00813050013897      2.86091429241015     -0.40126691758423
  C   -3.34477201654436     -0.71236732476611     -0.15871855127518
  H   -4.32817986018043     -0.99567444806895     -0.49748107945723
  C   -0.23575093175171      0.89580983337484      0.49357340879557
  C   0.49086383595646      2.04985837624579      0.12511651171514
  N   1.80869736796269      2.11454549064817      0.00424524989906
  C   2.70772273776986      1.13444810762763      0.03478994057359
  N   3.98268693364984      1.59662020400566      0.07614863264664
  H   4.76918794661858      0.98597484474567     -0.05249313385419
  H   4.11303865786363      2.57723062185556     -0.09248303226957
  C   2.55020503792824     -0.29593884666325     -0.01524296224855
  C   3.71697390511075     -1.04661393960305     -0.24815843775072
  N   4.67211111984232     -1.68431452507765     -0.44139224609204
  C   1.36606048911443     -1.04897563047180      0.16986012764892
  C   0.15089487832343     -0.43013472299684      0.50280461298214
  N   1.36901274808582     -2.38897306188826      0.05080372229321
  H   0.51362975060469     -2.91072317519378      0.13370838370421
  H   2.18951149258453     -2.88979982172642     -0.24219453215426
  N   -0.20138508852044      3.18341919497437     -0.09211732238288
  H   0.28816055016262      4.00366163431347     -0.40126475074786
  H   -1.20631889833498      3.20093148775141     -0.06806256989316
