27
Coordinates from ORCA-job ./opt_b97-3c_parallel
  N   3.41954103641695      2.96383493413816      0.02545644370583
  C   3.08431374260196      1.84673876006113      0.02202113581598
  C   2.67223966070695      0.51600227287977      0.01326162058857
  C   1.35912288995030     -0.02142815558857      0.03593798017733
  C   1.43903358263226     -1.47604366595211     -0.00372257409572
  C   2.73142816919442     -1.86141679866441     -0.05200484499267
  C   3.51806401116916     -0.61499542009986     -0.03731979931301
  N   4.85693041734538     -0.59038244824188     -0.05440239917888
  H   5.35166811163417      0.28310096062024     -0.09937958130529
  H   5.38929765563022     -1.43011803211286     -0.17947470165667
  H   3.16712536461732     -2.84833342497147     -0.09688057982138
  C   -0.05067253471218     -1.55012856683098      0.00518843620707
  C   -1.06354357211619     -2.42468094341919     -0.01209228808318
  N   -2.40139285021355     -2.12916055331671      0.01512515289845
  C   -2.97165780406958     -0.96560684074434      0.04711170303321
  N   -4.33741541251927     -1.00024836777516      0.17852970677380
  H   -4.73875449502972     -1.91079042919481      0.03545565320021
  H   -4.89771253434621     -0.21612332660687     -0.10612011323859
  C   -2.43639020095102      0.42472751841414      0.00541143949683
  C   -3.37871200370802      1.46774160755424     -0.03816962735821
  N   -4.12316969394210      2.36392934845305     -0.08364390675264
  C   -1.10994230110792      0.84783387396892      0.01344509318342
  C   -0.02443418746930     -0.08333249343239      0.03603693424200
  N   -0.77300621589381      2.15006429042665     -0.00195809450367
  H   0.19105311234616      2.42919089388703     -0.01436826802667
  H   -1.47048538966586      2.87381686106922     -0.02341513551697
  H   -0.84763083530043     -3.48595451692089     -0.04603153587915
