26
Coordinates from ORCA-job ./opt_b97-3c_parallel
  N   3.22198972704780      3.28149054597554     -0.14796507060941
  C   2.52218918324047      2.35493932810537     -0.10386273822217
  C   1.59928970994002      1.27949170448570     -0.04015243232639
  C   2.16231298439625      0.00007642978593     -0.06726086301248
  C   1.60014898253411     -1.27930368682618     -0.03855988783317
  C   2.52374083684141     -2.35429217311389     -0.10035595096946
  N   3.22441527980996     -3.28027453432847     -0.14242214301048
  C   0.23549043880465     -1.65874004627653      0.04966656402470
  C   -0.77936957072102     -0.71093265360877      0.20171950277739
  C   -2.22946001351831     -0.71667032957049      0.32625580513506
  C   -2.22935128110217      0.71593302708518      0.32718944362900
  C   -3.50753981514239      1.16140736515371     -0.02566399031730
  C   -4.29679111647649      0.00032300887135     -0.19244177415018
  C   -3.50699875393396     -1.16148332326779     -0.02754668133746
  H   -3.86187361367984     -2.17322542679992     -0.15697753411688
  H   -5.35601125017955      0.00034905813268     -0.39977603249050
  H   -3.86278125246857      2.17339221154216     -0.15212911632203
  C   -0.78000825765477      0.70987765262053      0.20187201382861
  C   0.23482626598172      1.65828077222291      0.04824780347675
  N   -0.13672947706325      2.96719119060261     -0.05011507334367
  H   0.56531520876259      3.68200995160604      0.04246435581729
  H   -1.04804520781989      3.20929578208785      0.29746398158944
  N   -0.13506169274020     -2.96831756723528     -0.04805147339679
  H   0.56774928139225     -3.68202504116874      0.04743877794942
  H   -1.04572662999374     -3.21054813405405      0.30124497383874
  H   3.24105788214299      0.00044098957256     -0.12373567470805
