26
Coordinates from ORCA-job ./opt_b97-3c_parallel
  N   3.57152313294709      2.80771125083712     -0.02063392003481
  C   3.36789721209335      1.66174274863329     -0.04683482384860
  C   3.00454497085465      0.30922817978710     -0.07396728327171
  C   1.70189694213199     -0.19202001339539     -0.34683163851014
  C   1.72826423425830     -1.61122859894352     -0.24698260077185
  C   2.99778812570714     -2.01325990866706      0.10047386181065
  C   3.79929152178152     -0.82218014407054      0.16474874265920
  H   4.86075247278717     -0.79686585177950      0.35238112767675
  H   3.36234032123031     -3.00582659599289      0.31678778261799
  C   0.22891508077441     -1.62280698423230     -0.19807606270139
  C   -0.82862099803890     -2.47476416071935     -0.08393704279112
  C   -2.17352162941448     -2.08635711835723     -0.04036748547985
  C   -2.75777693309151     -0.82443189242913     -0.04264310858451
  C   -2.09981885563200      0.45835685094525     -0.02305295257384
  C   -2.94901476461924      1.58091293541371      0.09491828738635
  N   -3.62182647010972      2.52427582667201      0.20022123331228
  C   -0.73050925711959      0.78161365545778     -0.08835228340972
  C   0.28134196538759     -0.19788635674821     -0.24520698671499
  N   -0.30628902809341      2.06081692443173     -0.00985659285578
  H   0.67195660470571      2.27887647730120     -0.07814195726895
  H   -0.94618896349698      2.82873631113251      0.08850599266987
  N   -4.13972911240641     -0.78490098874812     -0.10127110247382
  H   -4.61477912623700     -1.62574739610628      0.17517959182937
  H   -4.60261571311622      0.04927619667260      0.21894170721976
  H   -2.88215102576959     -2.90582828843089     -0.01182136464604
  H   -0.62612854881428     -3.53586229276379     -0.02049829344510
