25
Coordinates from ORCA-job ./opt_b97-3c_parallel
  N   -4.93938445032773     -1.56693636882039     -0.04453755027652
  C   -3.87077600960742     -1.10628896552054     -0.02291855242625
  C   -2.60027920201782     -0.49254912598079      0.00801684422712
  C   -1.48466177868168     -1.37774962819554      0.06693878391035
  C   -0.20183518514419     -0.99977659333903      0.23973032509187
  C   1.20829667180580     -1.54144726058511      0.27944387332442
  C   1.73376003002233     -0.23260966621106      0.50584164484322
  C   3.10625049541673     -0.32491989745974      0.12561387068322
  C   4.05271410747151      0.70733393256985      0.11592712261122
  N   4.77392654593276      1.62027385972493      0.09574572798348
  C   3.25915132237625     -1.66529320004086     -0.24797403337256
  N   2.07056603909402     -2.39191665828173     -0.22432097708490
  H   4.18018937044471     -2.14384188048590     -0.54122782128360
  C   0.42838940657969      0.28284063318001      0.33029014937893
  C   -0.11908506882017      1.57494726026257      0.06838048714914
  N   0.77508347424389      2.59386318525333      0.00311308708979
  H   1.75999918641570      2.39542494232160     -0.01112432936795
  H   0.50032049885363      3.49886218863732     -0.33134155646004
  C   -1.47356144856528      1.79048683996490     -0.06794937318953
  C   -2.59607838784340      0.91636779620119     -0.04003088549371
  N   -3.80282743741732      1.55986339194143     -0.16613617134346
  H   -3.85864162752554      2.51692248473992      0.13030802547019
  H   -4.64321581922632      1.02804990258468     -0.01287202777899
  H   -1.74578982285488      2.82869518630147     -0.22948234927142
  H   -1.70211077852527     -2.43228384436251     -0.02870613951403
