27
Coordinates from ORCA-job ./opt_b97-3c_parallel
  N   5.99459709433385      0.33633103884143     -0.05651325689840
  C   4.83941456397920      0.47997473634160     -0.02755025398128
  C   3.44404140926782      0.57175387239296      0.00239959369288
  C   2.67405142910272      1.77068424947414     -0.00377127538012
  C   1.35428752726769      1.36575624400105      0.02104766050752
  C   1.29976663873348     -0.09178443747221      0.04024125082898
  C   2.59343770371361     -0.60395578290562      0.02975462755451
  N   3.02956448688910     -1.87848860191973      0.08714257022756
  H   3.99808351293713     -2.07839101971180     -0.09136732038796
  H   2.37767953307369     -2.62929748835374     -0.05548540806446
  C   -0.11026949284274     -0.05442029903166      0.02862925031839
  C   -1.15123669556468     -0.96719982992276      0.01045592014237
  C   -0.76696756402275     -2.32498145540880     -0.00563593256358
  N   -0.40883621482054     -3.43178294484626     -0.02412450567336
  C   -2.53902006352384     -0.63674581376964      0.00089854977275
  C   -3.08285441358504      0.69002905521653      0.00045598709281
  C   -4.49793833333747      0.74161134430697     -0.00493166345991
  N   -5.66111758255000      0.72323678690058     -0.00980207759187
  C   -2.44860049860860      1.94357343292818     -0.00151125130187
  C   -1.11422077019451      2.32128973950349      0.00258043316637
  C   -0.07023976156901      1.42611339247744      0.01679599972597
  H   -0.89601962871793      3.38035293662729     -0.00482251977359
  H   -3.15053347485345      2.76776780649194     -0.00827111301785
  N   -3.40536644304268     -1.66397598509596     -0.00988146383081
  H   -4.39836444094757     -1.50619623811505     -0.01728951487546
  H   -3.08100422473358     -2.61484035264339     -0.00660807721582
  H   3.09690356291612      2.76166232569305     -0.03025553121375
