25
Coordinates from ORCA-job ./opt_b97-3c_parallel
  N   -4.99622015908985     -0.88225331451078     -0.01030894752945
  C   -3.84353738641221     -0.71488098654621     -0.00131788635399
  C   -2.45766967249337     -0.43894428604551      0.00662544711269
  C   -1.62445147547594     -1.56545312399268     -0.00561956447738
  C   -0.24516019758584     -1.70803037803341     -0.00849262585990
  C   0.63751518962053     -0.64731361469378     -0.00014676374093
  C   2.02906488699258     -0.37121339568372     -0.00291499313864
  C   1.76445800693391      1.05705653730308      0.00264191279385
  C   2.97310013831625      1.73555189799702     -0.00523579252033
  C   3.97832832723425      0.73844029211830     -0.01064985168308
  C   3.41632497954314     -0.56932094598397     -0.00593238490808
  N   4.12250705900926     -1.75146462025239     -0.07569766430851
  H   5.07400273449714     -1.70541649057659      0.24918099675297
  H   3.64350900285874     -2.55977510179520      0.28310359759416
  H   5.04046631787923      0.93834928272253     -0.02148735120482
  H   3.16071694283575      2.79849546057567     -0.00287555067896
  C   0.35764804644173      0.80949886305874      0.00762948970328
  C   -0.82030057762919      1.51075389136334      0.01841253697678
  C   -2.11189700941112      0.96080814011603      0.02050110800654
  N   -3.14378502397585      1.83733488636754      0.05420488180753
  H   -2.97180259547166      2.82106716697729     -0.02610859959743
  H   -4.09568698280524      1.52417348804799     -0.02042283762605
  H   -0.75472585355265      2.59271404291999      0.02969041601349
  H   0.14777765290045     -2.71617533426328     -0.02303906527883
  H   -2.17507960606003     -2.49837176628995     -0.01708868995493
