26
Coordinates from ORCA-job ./opt_b97-3c_parallel
  N   -4.70038310779651      0.00212729448783     -0.00082820992740
  C   -3.53580192934897      0.00162447664527     -0.00055583071041
  C   -2.12534119768103      0.00102122982838     -0.00033146928113
  C   -1.54689715885341      1.30768409008238     -0.00056224889924
  N   -2.39555797147873      2.34663840542030     -0.00063433005935
  H   -3.39218045209462      2.21604185308551     -0.00048682346500
  H   -2.04748114584213      3.29015203395038     -0.00094781758725
  C   -0.15449524323254      1.65035135433345     -0.00076759633047
  C   0.18595532528554      3.02117686463071     -0.00081675974009
  N   0.42210505055333      4.15919799937579     -0.00078927536081
  C   0.87137401203073      0.73463671923266     -0.00078458388231
  C   2.29908990978881      0.72740966003016     -0.00080070200354
  C   2.29847688528966     -0.72912460589277     -0.00024809385720
  C   3.62775630770801     -1.11813735638167      0.00050464857346
  N   4.41097788609961     -0.00174392467981      0.00039956368364
  C   3.62869298420746      1.11530707260195     -0.00040160299548
  H   4.07548288389365      2.09569498757203     -0.00055911838006
  H   4.07372091023636     -2.09890076022986      0.00112764639198
  C   0.87075159203170     -0.73514873780595     -0.00029702675170
  C   -0.15589911107893     -1.64998795243579      0.00028817457044
  C   0.18338316911065     -3.02110306986355      0.00099298487331
  N   0.41857229895818     -4.15932303389929      0.00159645206194
  C   -1.54801005594617     -1.30613301682570      0.00023951061555
  N   -2.39755511614644     -2.34436468313127      0.00073749539549
  H   -3.39406620229758     -2.21292291917652      0.00080615606895
  H   -2.05028287089661     -3.28817468035462      0.00103671379668
