25
Coordinates from ORCA-job ./opt_b97-3c_parallel
  N   -1.58902466664239     -3.65549956191603      0.02655910857785
  C   -1.42303651465448     -2.50406880660254      0.00487526511416
  C   -1.28287277939772     -1.10145246152638     -0.01596007804847
  C   -0.02507210763574     -0.54710519405973     -0.00674770806615
  C   1.33873632704272     -0.92858732171777      0.00744879369921
  C   1.76127002930320      0.46936377684913      0.00503215725666
  C   3.15846970583152      0.44212167101960      0.00243319493986
  N   3.58198917849120     -0.85699005848518      0.00671493843203
  C   2.50155663013766     -1.68321424376947      0.01232881226208
  H   2.63916570753142     -2.75258608013212      0.01236348484522
  N   4.06720089646680      1.46121247724221      0.05640062961326
  H   5.00062403987451      1.19889444146927     -0.21420258036658
  H   3.76552456350652      2.34708436619393     -0.30936801279066
  C   0.40909688984924      0.89870703935275     -0.01595704606241
  N   -0.20918973752458      2.04452341837502     -0.02720123669217
  C   -1.56076721882668      2.10424331057455     -0.03470733018709
  N   -2.00489436299782      3.39170010140688     -0.07884533630979
  H   -2.95711846160357      3.61095562106958      0.14647115003393
  H   -1.31522113136468      4.10033173958353      0.09668594692571
  C   -2.54363644657245      1.09962148615321     -0.03303226907047
  C   -2.47387284200496     -0.29368043751724     -0.03277647835210
  N   -3.64756551218919     -0.97266302443051     -0.07604748993383
  H   -4.51577502458633     -0.48763775840805      0.04689894114939
  H   -3.66150875141717     -1.96983336080012      0.04684266419429
  H   -3.55731019921679      1.48414646817532     -0.06332165946415
