27
Coordinates from ORCA-job ./opt_b97-3c_parallel
  N   4.39630407077869      1.93885676805806      0.01950402497523
  C   3.41394101638819      1.30809730534167      0.00133449437616
  C   2.24226106548875      0.53620326333130     -0.02428298813609
  C   2.43089125088346     -0.85188713359525      0.01310817769261
  N   1.55608793553277     -1.89855962762485     -0.10829746243201
  C   0.26196313115746     -1.89692931808546      0.02551284718394
  C   -0.56474290466882     -0.74706046082834      0.28062016463748
  C   -1.91737965095850     -0.47029913036836      0.38105310138880
  C   -1.66862294151415      0.95112551222816      0.19541274934107
  C   -2.86982162076195      1.50502959277093     -0.05477119801679
  C   -3.81322483603852      0.34758066120682      0.05450238146957
  N   -3.23237588894482     -0.82629093036410      0.28803933971590
  N   -5.15232121951826      0.48396916791219     -0.04767342230672
  H   -5.69552990370072     -0.35853209059008     -0.12478748882726
  H   -5.52959306285509      1.30165594682311     -0.48980749113482
  H   -3.15663118575695      2.51137051246540     -0.32207281127766
  C   -0.19614031759273      0.66804768160899      0.16983247694568
  C   0.98260464830840      1.28138280299396     -0.02252767168552
  N   1.06054310118363      2.64776049562732     -0.28809708953551
  H   0.26540250210662      3.16438026666439      0.05141834465124
  H   1.92296493157705      3.08404994079059      0.00116703026896
  N   -0.39112663266684     -3.07226752981695     -0.09291609905405
  H   -1.39433349542523     -3.09306275709169     -0.13092094656781
  H   0.12713867332513     -3.89127483157566     -0.35618318059253
  N   3.69896607762379     -1.33521307235789      0.17190813208827
  H   4.48525683097147     -0.71799941067229      0.06473472967359
  H   3.82883243247674     -2.29454331225209     -0.09251140144154
