24
Coordinates from ORCA-job ./opt_b97-3c_parallel
  N   0.97144511337322      3.53263379486955     -0.04520468522098
  C   0.23486459145216      2.63300281485559     -0.01688192234132
  C   -0.57420171589408      1.47466162739683      0.00943665604152
  C   -1.98058098060157      1.59001075150197     -0.03254158186037
  N   -2.95137140491098      0.70620379721403     -0.03335697373518
  C   -2.88375971026131     -0.64763831411042     -0.02229932134721
  N   -4.12223208865240     -1.20063888024622     -0.04461237376087
  H   -4.26254836149206     -2.18068251106780      0.11235408728646
  H   -4.90390955721634     -0.57771068122216      0.05056395800413
  C   -1.78506700788840     -1.53295552069344     -0.02114696520612
  C   -0.48021008136598     -1.12321285680062      0.02408489598536
  C   0.85558503192303     -1.63380647429536      0.03850547036667
  C   1.38027559402078     -0.27462427949811      0.08483093380788
  C   2.78169582170287     -0.31833029809255      0.03678722235391
  C   3.09578471976053     -1.70419926885217     -0.03547064197752
  C   1.92622005852493     -2.50792345478968     -0.04100065158421
  H   1.92515343764235     -3.58531797781722     -0.10778896591865
  H   4.10297169765380     -2.09330823050462     -0.07963487066635
  N   3.66074894968983      0.72459562572053      0.12116611807750
  H   4.58914800528565      0.57665668434287     -0.23385598332606
  H   3.29200501683734      1.64164990617821     -0.06821921257792
  C   0.08117501175577      0.24742305632283      0.05475741996879
  H   -1.99514619055927     -2.59545713907936     -0.05409248369879
  H   -2.34223579638137      2.61464235816763     -0.06801560746737
