24
Coordinates from ORCA-job ./opt_b97-3c_parallel
  N   -4.14454664626994     -1.74877283118721     -0.17675433957158
  C   -3.13986051923448     -1.16958887443995     -0.05890316788406
  C   -1.93035158130146     -0.46432794456697      0.06030235855552
  C   -0.73289556210320     -1.26029342007152      0.13639856684620
  C   0.47312187089647     -0.69844025609608      0.44645087097639
  C   1.95768967714916     -1.00998170913000      0.50535291518196
  C   2.26246791321610      0.34473996705037      0.86925727827711
  N   3.49905893341167      0.67406259257577      0.36386838280502
  C   3.86544908764692     -0.46878443376902     -0.20399675340677
  N   2.91679979165330     -1.49993688124572     -0.24924321853765
  H   4.84833879964300     -0.61577615957693     -0.62863272666382
  C   0.90028043161437      0.63395772021289      0.57957684305393
  C   0.21366312153793      1.79153677266340      0.05144814485031
  N   -1.07876421218768      1.89487685365080     -0.08938441351929
  C   -2.02873681308062      0.94773077448863      0.08061683431023
  N   -3.26272166398772      1.50171940122447      0.22446100690409
  H   -3.35035959112617      2.46450532763926     -0.04538087820668
  H   -4.08607137494714      0.92859557812716      0.16529796520559
  N   1.00007024983406      2.82581144829839     -0.28455165997009
  H   2.00110259642837      2.73761817293953     -0.22554968540647
  H   0.59759891263385      3.64141089720522     -0.71086072709315
  N   -0.82082683193554     -2.61095180307342     -0.05475303606480
  H   -1.60924542775605     -2.97558305753291     -0.56112798031539
  H   0.04246403906457     -3.10430075988645     -0.19998905622669
