22
Coordinates from ORCA-job ./opt_b97-3c_parallel
  N   -4.14894588723547     -0.41220278445233      0.00079903469406
  C   -3.02405838184553     -0.70103735178705      0.00089752081867
  C   -1.64579577435899     -1.02631587533721      0.00065835481227
  C   -0.72866214436237      0.03221818931547      0.00056766917186
  C   -0.72602794624390      1.45724076560380      0.00074884851497
  C   0.72447471534722      1.45801992754877      0.00041490562999
  C   1.17360524181106      2.77087051413900      0.00052419825918
  C   -0.00190911384039      3.56482956357467      0.00094429219485
  C   -1.17656866516706      2.76960502808226      0.00108546579720
  H   -2.18856038143423      3.14066338691379      0.00138878735191
  H   -0.00249085908702      4.64454821712841      0.00113054189229
  H   2.18519793873164      3.14301508135054      0.00035157046385
  C   0.72863725845778      0.03300215545493      0.00022926728460
  C   1.64692127384733     -1.02453510436403     -0.00010202269527
  C   3.02482842251499     -0.69774878875561     -0.00013691210697
  N   4.14939561420332     -0.40766999624140      0.00025020591265
  C   1.26601038837303     -2.37302762840306     -0.00021115280836
  C   0.00160850067552     -2.95238090217062      0.00001395563857
  C   -1.26341767108045     -2.37439538311239      0.00040313497115
  H   -2.08743607101128     -3.07675012698884      0.00050900915639
  H   0.00219310219809     -4.03373149260036     -0.00012455218374
  H   2.09079021130672     -3.07448858129877     -0.00047669607011
