25
Coordinates from ORCA-job ./opt_b97-3c_parallel
  N   -5.12509168495480     -0.44229530594529     -0.01373401062610
  C   -3.96713278928368     -0.30293881697724     -0.00598869610896
  C   -2.58333554777819     -0.13429080723999      0.00344784038191
  C   -1.62836197634684     -1.21752459447058      0.01106612828975
  C   -0.38081306804082     -0.60795994406079      0.02250101617115
  C   -0.55532816809892      0.84664324470456      0.01510203378452
  C   -1.92130594152353      1.13791088503007      0.00559235748474
  N   -2.55701204973421      2.34185078723658     -0.07071032946776
  H   -3.53364476096562      2.35785655009178      0.17283612465892
  H   -2.04539361521548      3.14582760061717      0.24615432353893
  C   0.83686321731219      1.05564654783285      0.00461596537660
  C   1.81475824871657      2.02010952525430     -0.01594089797495
  C   3.17210701653304      1.68932175616432     -0.02623080647424
  N   3.82079800537905      0.53340472506564     -0.02044161989413
  C   3.31971569442758     -0.71440773954960     -0.00961382621981
  N   2.06511894578777     -1.23475314423125      0.00123677565340
  C   1.02550349906835     -0.44920391194161      0.01023951918902
  N   4.27752274866065     -1.66759914328319     -0.02179335828856
  H   5.23909720582596     -1.39022106030449      0.03344900142949
  H   4.01544445652202     -2.63184725032898      0.05544603294262
  H   3.84923760661452      2.54091659289242     -0.04126743743725
  H   1.55703609686372      3.07206756836610     -0.02737228051951
  N   -1.96356535412990     -2.53419191709560      0.07296575670002
  H   -2.89733909162546     -2.78896297146202     -0.20185736636583
  H   -1.25558988701396     -3.19674411496517     -0.18820733152396
