24
Coordinates from ORCA-job ./opt_b97-3c_parallel
  N   -5.45486678928168     -0.15505189559491      0.03998535541581
  C   -4.29200393416697     -0.19204479084461      0.01309045681445
  C   -2.89199896630385     -0.14508527883510     -0.00975446049799
  C   -2.16844387027205      1.11524231385668     -0.00910612872773
  C   -0.82967982887688      0.75017999782820     -0.01475824292397
  C   -0.73705635443813     -0.71161227411477     -0.01656578163980
  C   -2.01007693475366     -1.25502321825326     -0.01436883750726
  H   -2.31859352655081     -2.28699552271990     -0.00989908827829
  C   0.66942078906971     -0.64861195935854     -0.01094344967595
  C   1.80627471212798     -1.44277235950378     -0.00212494601862
  C   1.68849596750764     -2.85272686494671     -0.00179376045562
  N   1.57702638854703     -4.00876816002530     -0.00125065811136
  C   3.09614573237305     -0.86636895475849      0.01110212722299
  N   3.51176850637037      0.38085015251348      0.01235609394096
  C   2.78988088746563      1.52492214576003      0.00458070257097
  N   1.46450191897044      1.81286949832078      0.00263196871887
  C   0.58813268598846      0.84775013763740     -0.00628459908114
  N   3.56485200080391      2.62048135910394      0.00112958158493
  H   3.14143107917924      3.52983286910589     -0.01194575791984
  H   4.56257866082399      2.51535251570867     -0.00168872497813
  H   3.91006718155691     -1.58627842603950      0.02177100089352
  N   -2.75582936516574      2.33665468286684     -0.06108918622588
  H   -3.73321150246251      2.40116763818632      0.16866422289701
  H   -2.20334038471210      3.13494728870665      0.19366107328206
