24
Coordinates from ORCA-job ./opt_b97-3c_parallel
  N   4.42491055162247      0.13758128389354      0.16527196934900
  C   3.04388170212967      0.29061002947012      0.03771929996252
  N   2.44959160156241     -0.95087702645453     -0.02860561765191
  C   1.18840348118568     -1.25230009096557     -0.00173945135952
  C   0.07960969055410     -0.33505717275115      0.14770548323489
  C   -1.30974847615577     -0.37947941373375      0.23467320312028
  C   -1.39597956050528      1.05652816563930      0.12734501589951
  C   -2.70331905615193      1.34289935931454     -0.04646468364066
  C   -3.35356927447726      0.00477189013925      0.01072862727758
  N   -2.51195142578144     -1.01885559682134      0.15917659079304
  N   -4.69832254618837     -0.16922778969376     -0.03545888714461
  H   -5.01627352246658     -1.11221041103756     -0.18241497808983
  H   -5.25435944463416      0.54616327983415     -0.46796908242006
  H   -3.21833836530651      2.27712944665345     -0.21376906604289
  C   0.11025591312677      1.11920967100367      0.09597221032970
  C   1.14669645767765      1.97004255609778      0.02154847307674
  C   2.51522628262881      1.55842363830049      0.01461730247248
  H   3.24060519140229      2.36327983445108      0.02540210864697
  H   0.95249423794332      3.03335542774123     -0.03394265437263
  N   0.83258607764829     -2.55434055532482     -0.15654502340346
  H   -0.11044939855855     -2.83629573156118      0.04323382196763
  H   1.55753838290455     -3.24794061674916     -0.10473135044266
  H   4.75396462853954     -0.73175148225645     -0.22146252122736
  H   4.97603608090034      0.92783061801068     -0.12504055303474
