20
Coordinates from ORCA-job ./opt_b97-3c_parallel
  N   -4.21391270472609     -0.19972230358305     -0.13597919503801
  C   -2.89514000852927     -0.09650142329991      0.06117530691905
  N   -2.28586669146981      1.18349905943798     -0.17167820218664
  C   -1.07610282297910      0.92441359881310      0.22112162674240
  C   -0.92339609875431     -0.46230679581963      0.56620006318365
  N   -2.11279389091189     -1.11167370799620      0.44881111064406
  C   0.45021335350416     -0.35153732766794      0.38210381351435
  C   1.57543337107811     -1.20823707168779      0.03421783474891
  N   2.80015838995456     -0.80551398152075     -0.11519087283523
  C   3.27249826300317      0.48474007713074      0.04758680716069
  N   2.75370300123288      1.66699991931077     -0.00108787093880
  C   1.40702085003837      1.96091690466722     -0.10818041707963
  C   0.41972405342467      1.09173055835842      0.14510470787464
  H   1.18130743237877      2.99229484890082     -0.34583770946845
  H   4.35039180780973      0.47747027128380      0.18115698107192
  N   1.27484352595587     -2.50863772994809     -0.15425145548610
  H   1.99319252167762     -3.12911679940472     -0.48447597754003
  H   0.32258072206359     -2.82629028614495     -0.13297062827628
  H   -4.68649362014787      0.54772460913841     -0.60931881709769
  H   -4.64129124080313     -1.10721902996816     -0.11461928191283
