24
Coordinates from ORCA-job ./opt_b97-3c_parallel
  N   -5.05734445218601     -0.58245274922492      0.03640957655203
  C   -3.89527846606159     -0.61930984936698      0.01897452848445
  C   -2.47835757311746     -0.58571371621066     -0.00101604242978
  C   -1.87917551754642     -1.85776310190254     -0.00404405342802
  N   -0.61932129966734     -2.29385539564956     -0.01505009429337
  C   0.37351675167809     -1.44243714284086     -0.05330663321569
  C   1.79054795185771     -1.49347184227537     -0.05756259495930
  C   1.85331780527576     -0.03377693759275     -0.09977861540693
  C   3.21356726121064      0.29260861722521     -0.02570717299670
  N   3.94854076340437     -0.86419291944606      0.05241331981611
  C   3.11080426410910     -1.92710827353317      0.03739714763786
  H   3.50997658948768     -2.92670022381516      0.10377984000070
  N   3.82710522518482      1.49119085851271     -0.06620719088141
  H   4.80406391536991      1.52245115920276      0.16591985908822
  H   3.29039985288920      2.32793004257004      0.07369408228617
  C   0.45545237710144      0.06648023483244     -0.08171177189669
  C   -0.52612621703370      1.03689467794018     -0.03849911824430
  C   -0.10145418012150      2.38245963766654     -0.01593464077070
  N   0.27420459120224      3.48301803121009      0.00674129970941
  C   -1.91739303234023      0.73896654294756     -0.00601576064484
  N   -2.76881072067824      1.77592298489979      0.02367706977123
  H   -2.43054847098245      2.72221433935765      0.01635494885586
  H   -3.76373427049751      1.63161381480487      0.04877211625812
  H   -2.60420778733851     -2.66460660251176      0.00876918390758
