23
Coordinates from ORCA-job ./opt_b97-3c_parallel
  N   -1.74885528738821     -3.32520607975616      0.00059787294846
  C   -1.83832624011775     -2.16686030448426     -0.01982998601597
  C   -1.83395435643191     -0.74890536110923     -0.04319173887278
  C   -0.59121177674657     -0.14612475588346     -0.12653170671352
  C   0.76893471751619     -0.46805126325606     -0.18348514247066
  C   1.13638699793712      0.93125540426233     -0.14571225830475
  C   2.54213813165411      0.93798281013750      0.00294475750128
  N   3.02216173452993     -0.33524957558663      0.04761382185791
  C   1.97072840203155     -1.19485736095631     -0.04570427864215
  N   2.15559706356581     -2.52135744339067     -0.03277390046007
  H   1.36436362260886     -3.13752371845547      0.01889931302028
  H   3.06191720259385     -2.88496895710247      0.20064896374236
  N   3.38792830835671      1.97809869259661      0.14430084928990
  H   3.08624412429096      2.89420720980252     -0.12980713979089
  H   4.37179937616608      1.78450659056759      0.07577697949448
  C   -0.22687882761856      1.31548312453447     -0.09727112480508
  C   -1.06923252969771      2.39453894079028     -0.00740532581567
  C   -2.46486852682225      2.29677820845478      0.04711413684957
  N   -3.30970425226301      1.26281237508823      0.06051631900517
  C   -3.05152784483482     -0.03463895763525      0.03290436308709
  H   -3.94010203920178     -0.65723321549279      0.08296583545210
  H   -2.98179697858597      3.25159953404907      0.09819931751377
  H   -0.65088461104261      3.39429416552539      0.02557882782917
