26
Coordinates from ORCA-job ./opt_b97-3c_parallel
  N   4.83290286909051      2.08040380451710      0.00282295674044
  C   3.85597351345912      1.44713102085767      0.00181768436783
  C   2.71085605015633      0.62611441361666      0.00027008114610
  C   1.45834833795246      1.29326518256803      0.00011022330875
  C   0.25493158640480      0.67334431886553     -0.00013391520383
  C   -1.22948082677991      0.94716137184467     -0.00014425675627
  C   -1.47831240687345     -0.44591940645986      0.00012759205390
  C   -2.88522168955814     -0.67363528819559      0.00028620603988
  C   -3.50388470836224     -1.93317129327998      0.00109936401498
  N   -3.92206486137700     -3.01809437290903      0.00172668125772
  C   -3.47098572907239      0.58797716354022     -0.00017574311685
  C   -2.43237463936232      1.61681768484468     -0.00060070450277
  C   -2.67762414225359      3.00038442427895     -0.00179064928606
  N   -2.88232656406388      4.14372368154868     -0.00275772340003
  H   -4.52768792066248      0.79302507421188     -0.00020163008400
  C   -0.08752555053968     -0.71177786134005     -0.00033649638337
  C   0.78550205029581     -1.84953199317726     -0.00107217601364
  N   2.09530144536530     -1.81643271322664     -0.00106390266131
  C   2.95585930093465     -0.77809603144508     -0.00032523093190
  N   4.24371013611684     -1.19625395818774     -0.00003827262401
  H   5.01661021538901     -0.55636093405326      0.00028725453616
  H   4.41853370151559     -2.18287075887407     -0.00073628226023
  N   0.18803917550390     -3.05641184817628     -0.00191199229018
  H   -0.81182160118404     -3.15462906366430     -0.00190315713913
  H   0.75549489112284     -3.88519753604159     -0.00248490453952
  H   1.48784955548196      2.37359933483663      0.00056117522730
