26
Coordinates from ORCA-job ./opt_b97-3c_parallel
  N   -1.72494685658979     -3.92622580200884      0.06113935426368
  C   -0.85250621652009     -3.16020778461255      0.01066650552139
  C   0.13646294351947     -2.14901080118059     -0.05040509218550
  C   1.49958051296171     -2.48670099736270      0.05531613710996
  N   2.60110740786032     -1.76092533559683      0.05407851754279
  C   2.79755670863647     -0.43962217117160     -0.00281624518117
  N   4.10605136842760     -0.09819148022147      0.00389568730863
  H   4.41300279956656      0.85710808627483      0.02549510916670
  H   4.77627794430284     -0.83600144315179      0.11923001522146
  C   1.84549980761998      0.63702810582621     -0.05980621074044
  C   2.29891874257488      1.97307615674041     -0.02284552157218
  N   2.66361655618151      3.07752367786139      0.00206849661462
  C   0.48760139078833      0.43602539158154     -0.16897964199677
  C   -0.71620061729752      1.15983305872838     -0.23238858244095
  C   -1.47835815870732     -0.08797600066226     -0.25164690191328
  C   -2.82887595721283      0.28490691865704     -0.06544201640389
  N   -2.91771830818620      1.63160675177291      0.05700044487354
  C   -1.66177436295957      2.17241608295753     -0.01937828614702
  N   -1.48394587124961      3.49481479157152      0.15494713857906
  H   -0.59839814910212      3.90936320053979     -0.07000641754658
  H   -2.29407628620073      4.08782998528502      0.14807105098528
  N   -3.92308142534571     -0.49753213926388     -0.04383027513387
  H   -3.81030559481320     -1.49105013232059      0.05088288905457
  H   -4.78519240026391     -0.09594006749113      0.27949227830238
  C   -0.30762586810222     -0.84195390135826     -0.18279487984950
  H   1.69397824931133     -3.54992474209433      0.15986204776712
