25
Coordinates from ORCA-job ./opt_b97-3c_parallel
  N   -5.91952985897173     -0.07993552402001      0.00042867433706
  C   -4.75816714025405     -0.13326295307327      0.00017527395336
  C   -3.35399198082218     -0.20628462760988      0.00004634509217
  C   -2.61700441924509     -1.43955417904145      0.00015966643572
  C   -1.29662151139692     -1.05642417595640     -0.00001171474320
  C   -1.21523093550071      0.39207735836171     -0.00017490853377
  C   -2.49045154586257      0.92698143062936     -0.00018055722797
  H   -2.81460542941908      1.95376054073922     -0.00029027713624
  C   0.20964463860609      0.32318835500842     -0.00020308358497
  C   1.29799424421779      1.16801221675476     -0.00021880481877
  C   1.08874576332747      2.56148617492297     -0.00017628428848
  N   0.97133649275610      3.71897913285998     -0.00027932671252
  C   2.65887982665720      0.68048521822429     -0.00007928055467
  N   3.13522101998503     -0.55843832027706     -0.00037714368946
  C   2.51259242370698     -1.73942993259907     -0.00057157114950
  C   1.13279676796817     -2.07797051009385     -0.00028637752839
  C   0.14317107283331     -1.14756545354831     -0.00015325680845
  H   0.86907271526446     -3.12747559053125     -0.00028383797568
  N   3.37806031608932     -2.77641918443062     -0.00101267926903
  H   4.36206303743703     -2.57987141814753     -0.00148235585095
  H   3.06769479463623     -3.72900514657102     -0.00165326381679
  N   3.62123670597302      1.61982656452248      0.00035796481235
  H   3.41025029398548      2.60198939027423      0.00045153473340
  H   4.57768813285877      1.31660692256591      0.00028481348282
  H   -3.06487190243026     -2.41935779586366      0.00032844334172
