24
Coordinates from ORCA-job ./opt_b97-3c_parallel
  N   -0.87437978767511     -2.86732745724634     -0.17731725219215
  C   -1.35054543194172     -1.59764800707743     -0.00118188770330
  C   -0.36849340467328     -0.61581662540675      0.34358947870728
  C   1.01911271687827     -0.64144529608163      0.64825841733545
  C   1.07503374231160      0.75043948691335      0.38344857234086
  N   2.24763820706665      1.10059844265586     -0.09048846934040
  C   2.93724700840565     -0.13109160687359      0.01523921328586
  N   2.23569789411122     -1.21130778762806      0.37400239955035
  N   4.27924143965575     -0.14587578444095     -0.21074272496790
  H   4.67390469829226     -1.05330779378738     -0.38781169200943
  H   4.61929287886993      0.59131538556833     -0.80350629513513
  C   -0.43174677403517      0.81016194249728      0.23475732877058
  C   -1.43546729171752      1.70191018893037      0.02696364189370
  N   -1.15589877576428      3.04908963297517     -0.20106704975952
  H   -0.24055161375846      3.33558547551098      0.10927433370291
  H   -1.86726919962330      3.68388485671578      0.12434640740128
  C   -2.80025826211046      1.27459193932879     -0.04265223837102
  C   -3.30325766317680      0.00769852600547     -0.09537476981083
  C   -2.67811233411322     -1.26798578949040     -0.13432115659736
  H   -3.35770763537501     -2.09753332588942     -0.30202613963128
  H   -4.38386407645669     -0.04443006365537     -0.15083644265979
  H   -3.53297529714380      2.07337217422490     -0.08646937908922
  H   0.04605245499850     -3.07029748765880      0.17458008051229
  H   -1.52092097362501     -3.63554303759016     -0.17062064783324
