21
Coordinates from ORCA-job ./opt_b97-3c_parallel
  N   4.36405534367937      0.03186561519115     -0.10174182761404
  C   3.02122160997040      0.09608331190336      0.00846736189949
  C   2.20245551182976      1.19634002873963      0.28014682232192
  C   0.91374343607389      0.63319644443066      0.34270630290967
  C   1.10236660246975     -0.78762333231093      0.09806157197136
  N   2.31925299104936     -1.14457980945280     -0.14985164960711
  C   -0.37981519252596     -1.01419691680659      0.05177962348259
  C   -1.32781249654741     -1.95169724805393     -0.09585724558356
  N   -2.68604821448014     -1.72807781755859      0.04493669890700
  C   -3.26949391262095     -0.57888548757533      0.10783299737630
  N   -2.87495825565871      0.74232202262423     -0.05241200839077
  C   -1.67036190394987      1.21554367982341      0.01474713533151
  C   -0.46217523674812      0.42991986401120      0.23358260040602
  N   -1.48071275539580      2.54802418573891     -0.13271674263780
  H   -2.26509340856239      3.09665769134250     -0.44172991007062
  H   -0.55807503056519      2.90307935048753     -0.30736608986282
  H   -4.34272636419530     -0.63122831821356      0.26540551774892
  H   -1.05185371824976     -2.98382044949486     -0.26703013447960
  H   2.53253050045275      2.21241495194810      0.41789459771145
  H   4.74418503886749     -0.79554122412408     -0.52611469396671
  H   4.89496926360679      0.87688917624998     -0.20452668705322
