29
Coordinates from ORCA-job ./opt_b97-3c_parallel
  N   -4.57392863429143     -1.79355351659561     -0.85680572120774
  C   -3.69434844389694     -1.09752117687932     -0.54522413582426
  C   -2.58402877310738     -0.32855080832969     -0.13726188162923
  C   -1.44749481574152     -1.07922313831707      0.17033109798501
  C   -0.23150464687895     -0.47796132388757      0.60891416709832
  C   1.06116383128415     -0.99006630829916      0.91381407894868
  C   1.61194735269562      0.30287980197935      0.68671034280192
  C   2.86365486487892      0.07926799691888      0.16422334274969
  C   3.77865518982198      0.96681340616794     -0.40880969659859
  N   4.55634307039420      1.67868381516647     -0.90307424955976
  C   3.01924306891891     -1.39636675945448      0.22136939130858
  N   1.91238553068471     -2.02135634283622      0.60801356629982
  N   4.19322118991083     -2.03065866036995     -0.03087109139632
  H   4.85791576930664     -1.56016874713892     -0.62069267071015
  H   4.13494196912536     -3.02603578839182     -0.16117002572455
  C   0.21327157826387      0.86596962920487      0.50665775918824
  C   -0.42992484879427      2.03641971352061      0.25442188294986
  N   0.26913205426425      3.23587309732578      0.20206689047057
  H   -0.07248428801724      3.89897228509611     -0.47459990941839
  H   1.26940143658901      3.13641120316720      0.14180737218696
  C   -1.84829774544948      2.10221879610317      0.12761695117735
  C   -2.78343360318331      1.11113702428079     -0.04455376082681
  N   -4.09782650351785      1.50238066338164     -0.25710418360841
  H   -4.81953928902676      0.86700860928354      0.03995520444151
  H   -4.30711947299816      2.45666537222202     -0.02177909043696
  H   -2.24905542561493      3.10970791009869      0.15756151606918
  N   -1.41946676998539     -2.42465760194593      0.08323476584974
  H   -2.19619767625214     -2.94279116425663     -0.28859173630161
  H   -0.54125751538259     -2.90158244051472      0.19656224281736
