29
Coordinates from ORCA-job ./opt_b97-3c_parallel
  N   -5.17923771834395     -1.40627005703817     -0.51779599834419
  C   -4.23877943825294     -0.75138260601316     -0.32332856610456
  C   -3.04946613061761     -0.02065430265822     -0.08564118242660
  C   -1.89104309616910     -0.80081336618261      0.10978929394153
  C   -0.66361183189671     -0.19362892612674      0.45749944580367
  C   0.67734553383669     -0.68058176287995      0.75576693952326
  C   1.15211920605832      0.64767289313715      0.69891190379323
  C   2.45213976462617      0.64750431545856      0.18451136887920
  C   3.23482925053433      1.75697580700272     -0.14709054962127
  N   3.86116737812924      2.69677248850449     -0.43215620362512
  C   2.82908802287138     -0.73484249981075      0.00346240190860
  C   1.70623450312228     -1.55099852464066      0.29444987677964
  C   1.64345076091109     -2.93912754061638      0.16788309508149
  N   1.54305697376575     -4.09410896998801      0.04527613254776
  N   4.05181889770041     -1.15835144860370     -0.40435188506721
  H   4.28695384146729     -2.12654908508022     -0.27527703677057
  H   4.82430177366203     -0.51979841689418     -0.33795987416927
  C   -0.23669390933542      1.14371644498315      0.45107000158794
  C   -0.86553386528231      2.34653728877409      0.18590330010052
  N   -0.12469689532863      3.50020481942534      0.16168725957812
  H   0.87520567542345      3.41281402984620      0.09539559099937
  H   -0.49590418686415      4.28549143938730     -0.34313285259297
  C   -2.26749681846477      2.40876516796830      0.01512560853210
  C   -3.18051862424143      1.38982806781679     -0.08706805345861
  H   -4.20182725085807      1.71837574215432     -0.22344456042657
  H   -2.68375186520118      3.40681579031865     -0.05855868129275
  N   -1.90888169500806     -2.14479820623751      0.00129668075422
  H   -1.08004857399090     -2.68648681917577      0.16937788707795
  H   -2.74769824745313     -2.64061919253099     -0.24308109068889
