23
Coordinates from ORCA-job ./opt_b97-3c_parallel
  N   -5.24683539372303      0.06347991948037     -0.03542207553910
  C   -4.08827717350899      0.13936189636772     -0.02171397485052
  C   -2.66897162712392      0.24316481076163     -0.00489742999097
  C   -2.18856470363188      1.58573669741497      0.00049813416002
  N   -0.97129285978329      2.10659652496393      0.01018079086769
  C   0.09982085942049      1.33537804796008      0.03182061829703
  C   1.50266495703041      1.51133212016776      0.03643163214724
  C   1.69181512306105      0.06596354363304      0.05664923925422
  C   3.06577914623612     -0.21305568080312      0.02304911567537
  C   3.70441206406136      1.07484922651377     -0.01361672078555
  C   2.76351505726058      2.11371735092998     -0.00859276168811
  H   3.00559915515262      3.16436535707053     -0.04017642089044
  H   4.77494275254817      1.21497144080254     -0.04281014968265
  N   3.67154868458440     -1.41352425904749      0.04983199708867
  H   4.66078271699771     -1.49631684255511     -0.09320467659457
  H   3.12471761511827     -2.25477647054916     -0.01353904181762
  C   0.31325732951096     -0.15158767109948      0.04545959878588
  C   -0.60116414305125     -1.19958584620246      0.01947140563860
  C   -0.04689302067353     -2.50164003499148      0.00367854427162
  N   0.52912873181579     -3.51113534321563     -0.01094572659797
  C   -1.98125928259838     -0.97690212186801     -0.00074076302553
  H   -2.60384125740989     -1.86122066729526     -0.01673975137400
  H   -2.97751019689374      2.33023533906084     -0.00836273824933
