27
Coordinates from ORCA-job ./opt_b97-3c_parallel
  N   6.10122023654128      0.32782394795036      0.05789267313342
  C   4.93781116318437      0.37389108976417      0.02514660967010
  C   3.53891870059521      0.35550475343149     -0.00426966216299
  C   2.67626042021823      1.50190855642310     -0.00428332531263
  C   1.39920706856755      0.99790110940154     -0.01056906490732
  C   1.45271954744914     -0.46225739723277     -0.01673747285576
  C   2.78631231765389     -0.86961843325364     -0.01226834849630
  N   3.32156124440542     -2.12422063564973     -0.08168191869813
  H   4.28821258480738     -2.21645157896290      0.18456403201370
  H   2.73885509630607     -2.87713221224590      0.23880325331725
  C   0.03837708025076     -0.53054232239429     -0.00597960013887
  N   -0.84671060118857     -1.49106187483056      0.00574089033915
  C   -2.16978381886386     -1.24539387470151      0.01109805211136
  N   -2.89020811778513     -2.38408147997903      0.02692805470578
  H   -2.38102933390033     -3.24816455603185      0.00511021654255
  H   -3.89369305841657     -2.39815758260323      0.01066949016761
  C   -2.90537407474287     -0.01130639794046      0.00355355125382
  C   -4.30400890957384     -0.15831989597865     -0.00153300888922
  N   -5.46427274566046     -0.27558582824337     -0.00665143269947
  C   -2.44293318798881      1.34177216595885      0.00459325991200
  C   -1.10599449970669      1.79526300571601      0.00133877279800
  C   -0.02998114798072      0.96507346116234     -0.00555451693078
  H   -0.94492904723417      2.86621284007158      0.00447489218595
  N   -3.38780265191842      2.30809732928694      0.01556486913431
  H   -3.12273413095544      3.27316602072312     -0.02379713400719
  H   -4.36864160098201      2.09283847771945     -0.01100845450109
  H   3.02413509691862      2.52183365323891      0.00773565241476
