24
Coordinates from ORCA-job ./opt_b97-3c_parallel
  N   -2.27880357847730     -3.07674321293248      0.01025808368198
  C   -1.91362984512709     -1.97147015166326      0.00311350474410
  C   -1.53381211654751     -0.61516523581314     -0.00532237561340
  C   -0.18326330248360     -0.28374035372943     -0.02298449058208
  C   1.07728940511398     -0.90585263417007     -0.02948389070653
  C   1.75393213201669      0.38867063786471     -0.02990049950376
  C   3.12890880154410      0.17181657483638     -0.00484386378750
  C   3.28234277100880     -1.25463232554698      0.00296140918525
  C   2.04110477989157     -1.91190118879669     -0.00936712463635
  H   1.90111120072994     -2.98114441352275      0.00060537441701
  H   4.24125626039713     -1.75387175831201      0.01280479625542
  N   4.15125945739605      1.08502628235198     -0.05634244898529
  H   3.91162594728457      2.02364915889673      0.21289923678103
  H   5.03828684531613      0.78541150765816      0.31089304089856
  C   0.50050060811555      1.05696707495349     -0.01975860859136
  N   0.09569337270832      2.29997377161698     -0.00530101845306
  C   -1.22727037779090      2.56359353439248      0.00095529047464
  C   -2.36135550265070      1.78020886698778      0.00150466413540
  C   -2.55632978355075      0.37338414295776      0.00195600210836
  N   -3.83587808898225     -0.05539672434368      0.01242680752792
  H   -4.05725715567673     -1.03567209768629      0.00928192710786
  H   -4.59647224064904      0.59653503513649      0.01447456166055
  H   -3.28204886223432      2.35261789608400      0.00683437377622
  H   -1.43558194785261      3.62974273127985      0.00640604780505
