20
Coordinates from ORCA-job ./opt_b97-3c_parallel
  C   -2.99689858530371     -0.91056355068176      0.00143837253848
  C   -2.84299591999514      0.43401382405370      0.00116518697320
  C   -1.40716751655202      0.70718758099673      0.00071398944498
  C   -0.72100310687575      1.87497001348187      0.00032106190651
  C   0.72125815747591      1.87490924543747     -0.00008352837825
  C   1.40732252853194      0.70706825507870     -0.00006973883362
  C   0.71475365931847     -0.58101444303101      0.00035121986646
  C   -0.71470762842441     -0.58095429001506      0.00074751215232
  C   -1.68175776034697     -1.54895371281795      0.00119310930857
  C   1.68172251273303     -1.54909527398491      0.00024784829075
  C   2.99691818100536     -0.91081660343323     -0.00023193400012
  C   2.84312890429560      0.43377284221757     -0.00043422378830
  H   -3.93304681894400     -1.44751460719098      0.00178970540890
  H   -3.61810268990049      1.18327719812032      0.00124891900013
  H   -1.24212753174664      2.82430314591645      0.00030229219779
  H   1.24246265644319      2.82419819453323     -0.00039929998898
  H   -1.52101524138681     -2.61684871911130      0.00134223905903
  H   1.52088971188389     -2.61697639632400      0.00047720742221
  H   3.93302045790423     -1.44784727670856     -0.00039983982250
  H   3.61829810008431      1.18297103046270     -0.00078826155758
