22
Coordinates from ORCA-job ./opt_b97-3c_parallel
  N   1.36395605476116      0.09687015826407     -0.01686888957793
  C   0.20606846064345      0.02782886505636      0.02082816433257
  C   -1.20852654280021     -0.02798220015454      0.02269922032774
  C   -1.92044654345642      0.61335112499816     -1.00961331420974
  C   -3.30651851671316      0.56352517381299     -1.01562460516636
  C   -4.02507920064775     -0.11315475155452     -0.01461304539100
  C   -3.37193317304626     -0.75158229356671      1.00989050795328
  C   -1.91476875216859     -0.70968618649574      1.03250670057870
  N   -1.49585088827475     -1.39343370154450      2.11269041736149
  C   -2.65473383863758     -1.80511880176011      2.67849864580246
  N   -3.81464894796939     -1.45756678495669      2.07275037270900
  C   -5.42080787874975      0.05285138678775     -0.35498836532800
  N   -6.40196842476725     -0.45136901202594      0.36363223698765
  N   -5.59730247060287      0.77527344592290     -1.48019476694950
  C   -4.34637451099163      1.08838824394333     -1.88776111501707
  N   -4.16075558467755      1.80646414528373     -2.98399543138408
  H   -1.36013560018180      1.13144883421291     -1.77566395384917
  H   -2.65208032631757     -2.39261099592770      3.58517491950033
  H   -7.36224307785172     -0.31629439615700      0.09702741554118
  H   -6.17148155146878     -0.98046899277377      1.19395929340986
  H   -4.95701703974930      2.11841833539552     -3.51272512774457
  H   -3.24229164633217      2.05090840323952     -3.30459927988684
