24
Coordinates from ORCA-job ./opt_b97-3c_parallel
  N   1.47318290455867     -3.93142916738249     -0.00663863612859
  C   0.95515506424203     -2.89039451849907     -0.00444196614869
  C   0.35693733653812     -1.61249200985996     -0.00231779947644
  C   -1.02216007937245     -1.47021755376973     -0.01091629073624
  C   -1.59964929649213     -0.19579367794900     -0.01126865572099
  C   -0.80641288929998      0.99928016062653     -0.00321201784791
  C   0.55990252039319      0.90552453903002      0.00835391845563
  C   1.17504146127953     -0.44269440817172      0.00542924143426
  C   2.52413364530203     -0.22369775497582      0.01440362487407
  C   2.66880521123686      1.21710639998373      0.01798776427551
  N   3.84473059253210      1.86955561073328      0.05621229979305
  N   1.50822471862033      1.88123703139359      0.01491604115386
  C   -1.70555733781383      2.12962239203976     -0.00303321722400
  C   -2.98726753295738      1.66957037231664     -0.00963750105122
  C   -2.94879539991032      0.22130917905032     -0.01352512306763
  N   -4.04289203039135     -0.55328105232152     -0.03554192267828
  H   -1.63281639592835     -2.36408364117446     -0.01924948670156
  H   3.31686885011372     -0.95410377410464      0.02272847913766
  H   3.83316508667241      2.86485625792220     -0.08138331742864
  H   4.69942915099432      1.38262115689356     -0.13701071172431
  H   -1.39095423981500      3.16051863498107      0.00331917594400
  H   -3.89080235424947      2.25929629244617     -0.01354145323812
  H   -3.97492248297654     -1.55180010741319      0.03294396357364
  H   -4.95846127267648     -0.15317742589530      0.04775691623095
