20
Coordinates from ORCA-job ./opt_b97-3c_parallel
  N   1.33572449183526      0.04902886664060     -0.06063846787432
  C   0.17557863774735      0.03488010798767     -0.03295275809136
  C   -1.23790189461830      0.02791642048230     -0.01428744029416
  C   -1.97435581096883      0.66624649888884     -1.00662787404282
  C   -3.37588594035428      0.65559684937483     -0.98194468860647
  C   -4.13042135715968      0.00366909001569      0.03988231950727
  C   -3.45358527411126     -0.64670222452035      1.05144738790040
  C   -1.94829216522842     -0.63249845699974      1.02062091433604
  N   -1.49649109604956     -1.30051188748882      2.06047161797971
  C   -2.66889597336687     -1.69853717529797      2.68826092791052
  N   -2.60509454370694     -2.41143243577950      3.79986830586762
  N   -3.84700537474254     -1.33458246497775      2.12728198557496
  C   -5.49893482706130      0.23231499110942     -0.30879350474087
  N   -5.61491285401523      0.94937119629134     -1.42706149417310
  C   -4.33605648725989      1.20905878232432     -1.83985220547091
  H   -1.44882234992406      1.17473962760600     -1.80333194705749
  H   -1.70943621797373     -2.65925296487922      4.18119315597968
  H   -3.44880931602190     -2.70343961636054      4.26005055521977
  H   -6.36997404090035     -0.10976382345973      0.23022450312116
  H   -4.16203760611941      1.78404861904259     -2.73796129304566
