23
Coordinates from ORCA-job ./opt_b97-3c_parallel
  N   1.34495036021710      0.10982605998826      0.14037146685763
  C   0.18594912416647      0.07494013477347      0.07212677657992
  C   -1.22494140437813      0.02556945571435      0.02356262402478
  C   -1.96229544769135     -0.23744976689743      1.20612576158602
  C   -3.34065375585108     -0.29013446886619      1.18153841753440
  C   -4.06412010782317     -0.08347879071531     -0.02367303092225
  C   -3.39392443471823      0.17542976410862     -1.20050452200926
  C   -1.91923557998560      0.23213985386331     -1.17609864336776
  N   -1.48872604283899      0.49390118648017     -2.41801000326524
  C   -2.64528637264645      0.58430264527930     -3.12428559762947
  N   -2.63392353120140      0.84138055319916     -4.43338030776596
  N   -3.82564091520178      0.40227109385434     -2.44743260490594
  C   -5.45360894660219     -0.20075959583864      0.27729960539738
  N   -6.41067243160678     -0.06197417344916     -0.63201682772528
  C   -5.58530863530249     -0.48155417248801      1.67740057311155
  C   -4.31880145508397     -0.53325875122148      2.21011568069212
  H   -1.41841376594592     -0.39567982175062      2.12705359052636
  H   -3.49398928797129      0.90673994716344     -4.94318652190718
  H   -1.75766829382063      0.97134891447685     -4.90338516052520
  H   -6.14722853570300      0.13693002104138     -1.58673489327060
  H   -7.38409340416533     -0.14764222336178     -0.40240025993176
  H   -6.51481607903135     -0.62398922953991      2.20410480578742
  H   -4.08813105681436     -0.72743863581410      3.24697907112831
