25
Coordinates from ORCA-job ./opt_b97-3c_parallel
  N   3.46789572491322     -0.32821223275706      0.15020938970139
  C   2.30259167762373      0.32181221051142      0.02323554755531
  C   2.10787079151661      1.72078889504964      0.02908844267900
  C   0.72907528211006      1.93588989615166     -0.07002481409394
  N   0.01677235290818      3.05745162860795     -0.07959116208329
  C   0.05670644251201      0.64796166046508     -0.14955408876580
  C   1.03488776153803     -0.35602169590424     -0.12476223535025
  C   0.68083229683929     -1.71147432972989     -0.07645721553139
  N   1.71930664714354     -2.68671060857466     -0.08071663041823
  C   -0.66972444807770     -2.05832769866541     -0.00992480205969
  C   -1.66139202932715     -1.07060795991933      0.00437204114965
  C   -1.27987855742434      0.34444855446664     -0.08101953495234
  N   -2.35439397688448      1.16938134935754     -0.05255788479072
  C   -3.41222465231566      0.31996338769495      0.03835758646489
  C   -3.06143354439113     -1.03732104466853      0.07159067102019
  H   3.40871935104754     -1.31687100497800      0.36082276642495
  H   4.27879927459474      0.16853858272397      0.47510259332513
  H   2.87985230013345      2.46872491110483      0.10594598703692
  H   -0.99542587390224      2.96287981094150     -0.07953201723460
  H   0.43338166540712      3.95925222567448      0.06343939681114
  H   2.16163128245701     -2.74247344878920     -0.99060533794401
  H   1.35574689538484     -3.60427330150811      0.13533340539288
  H   -0.94255392896502     -3.10798970843065      0.01062541218361
  H   -4.41738454681774      0.71816435950781      0.08063405932333
  H   -3.73900693262392     -1.87273849023241      0.14306598225589
