25
Coordinates from ORCA-job ./opt_b97-3c_parallel
  N   4.53468787998301     -1.65561567859463     -0.02390964386010
  C   3.52841500384446     -1.06763964789440     -0.00729084732040
  C   2.38965711743882     -0.26464818527779      0.00486042367245
  C   2.43777708566306      1.17190058785749     -0.01560336005183
  N   3.59337209986560      1.86561369942026      0.01167206237529
  C   1.13558412988107      1.70280956106488     -0.02509190960330
  C   0.24436774772053      0.62965732678126     -0.01143527382295
  C   1.03891445873810     -0.63515401271675      0.00427368892297
  N   0.52499503629814     -1.86627365985140      0.01027580824438
  C   -0.80600463043162     -1.98048100639268      0.00562216059233
  C   -1.65058315603463     -0.87963961461159     -0.00199190969641
  C   -1.12485062793998      0.44047864115422     -0.00857531497628
  C   -2.28829045871817      1.29298846589820     -0.00958319630969
  N   -2.28938411574665      2.62441626565894     -0.01625838714371
  N   -3.44330788396901      0.59989593348120     -0.00903767243607
  C   -3.07551259132125     -0.70339288906899     -0.00461799910580
  N   -4.00513136500540     -1.65734577040200     -0.00289425137460
  H   3.59387325396670      2.84459364053959     -0.20582186924862
  H   4.45703851906058      1.37254833195655     -0.13767760057180
  H   0.91017228512986      2.75837253078811     -0.03687643523094
  H   -1.19159933427401     -2.99582791964684      0.00962977814344
  H   -3.16262410597257      3.11911861626399      0.02500927009598
  H   -1.43405105659020      3.14241529603105      0.04185230534819
  H   -3.76179635079546     -2.62926803977536      0.00689430980957
  H   -4.97559789979094     -1.39953000236338     -0.00205218975211
