22
Coordinates from ORCA-job ./opt_b97-3c_parallel
  N   3.45200334261900     -0.12124884055387      0.21396370224184
  C   2.26885809438583      0.49539037049589      0.03470128194311
  C   2.10335448088899      1.94895930829620     -0.01253821310256
  C   0.78364080627413      2.22467077895984     -0.13279320159347
  C   0.05783447479655      0.96266950006237     -0.16629646332113
  C   1.01561416970143     -0.10088834770346     -0.11076551743195
  C   0.58789631180971     -1.45804550376987     -0.07097333348217
  N   1.55302085939832     -2.46928945208845     -0.07944076935374
  N   -0.67476398882042     -1.81369675921847      0.01137847667960
  C   -1.59259917289600     -0.81035412489197      0.02464960941690
  C   -1.25908038132699      0.63518213321548     -0.09993243527957
  N   -2.39124271310012      1.41590965123495     -0.07162167663228
  C   -3.37727412451085      0.53426042142453      0.05903001481374
  C   -2.96134024080641     -0.83894744726258      0.12479970093376
  H   3.42981747806709     -1.08627178313289      0.50972893472365
  H   4.23290017717332      0.42015538472969      0.54130718202546
  H   2.91522705872457      2.65685051011310      0.05527537439633
  H   0.32060779219464      3.19646760105459     -0.17531183112184
  H   1.10048341009447     -3.37363169014247     -0.08940326516248
  H   2.19335211144349     -2.39589570399164     -0.85870896123304
  H   -4.40369303764516      0.87622524355034      0.10836187215642
  H   -3.59671987346559     -1.70237851328129      0.23105773538344
