22
Coordinates from ORCA-job ./opt_b97-3c_parallel
  N   -3.32668656842291     -1.41821985066730      0.00201799643524
  C   -2.36800856948917     -0.49047672572808      0.00189319234654
  C   -2.57295617631849      0.90222271609262      0.00240405960910
  C   -1.31137398251575      1.50199946236219      0.00205460358083
  N   -1.03004666967935      2.80391550007155      0.00228590072105
  C   -0.28286437960949      0.46695234540531      0.00127468902000
  C   -0.95039618238270     -0.77590262386467      0.00119685206546
  C   -0.23332837987287     -1.96748824257089      0.00059723646244
  N   1.09972668797047     -2.02085768786037      0.00006856038972
  C   1.75655025704529     -0.85699325030013      0.00011058895118
  C   1.09488637735363      0.49082015257057      0.00071061352465
  C   2.15359477591999      1.40441011125949      0.00053656904644
  C   3.30899405859882      0.61420785440221     -0.00011997158793
  N   3.09036762992955     -0.72611741263941     -0.00036587620761
  H   -4.29823776671483     -1.16911935620978      0.00257517858514
  H   -3.10038655811451     -2.39518508047809      0.00169424465731
  H   -3.52554508739597      1.40618749510872      0.00296820157688
  H   -1.74945056416214      3.50306427812406      0.00321266514444
  H   -0.07533055043281      3.11257950464728      0.00239430622769
  H   -0.74012736582554     -2.92975623047093      0.00053794180922
  H   2.13147503655418      2.48398325743481      0.00073905145738
  H   4.32525053756463      0.98581145141085     -0.00043237221520
