26
Coordinates from ORCA-job ./opt_b97-3c_parallel
  N   -2.30320392511064      3.66968722697794     -0.06171571836561
  C   -1.64863773437806      2.71006138373971     -0.04027632835663
  C   -0.80592082127405      1.57646212519214     -0.01268189553640
  C   0.59303367663462      1.75330947459725      0.01651117376443
  C   1.42574851166297      0.65792627258019      0.04255859470235
  C   0.92535824658103     -0.67211020113889      0.03768842325501
  C   -0.44385671065496     -0.90809406524985      0.02639596618272
  C   -1.33861554597840      0.27800825791796     -0.01082593393202
  N   -2.62575672042178     -0.08249523711624     -0.02565689875287
  C   -2.60738998208118     -1.44266208607124      0.00586593351272
  N   -3.78272882402363     -2.11291453099758     -0.03217986852791
  C   -1.30733093383988     -2.00098913977068      0.03626505488944
  C   2.06941733391143     -1.54516900008156      0.02093776748746
  N   1.99272314350146     -2.88308821245003      0.01001821562602
  C   3.25087719945530     -0.78058163159904      0.03527356782414
  C   2.87481610807850      0.56477797413313      0.04387525294735
  N   3.70001132974221      1.62151595577998      0.07706547092783
  H   0.97744564481519      2.76503350448638      0.01742743900106
  H   -4.60548934146133     -1.56445588707467      0.15094688846619
  H   -3.80891703725173     -3.06891880729134      0.27107182587309
  H   -1.08006886644043     -3.05429363763163      0.08734648166453
  H   2.81352999084559     -3.43937146703449     -0.14427581245979
  H   1.10863031329937     -3.32313806190326     -0.16655649462205
  H   4.25853497720567     -1.16357062675996      0.03512519590196
  H   4.68920186905427      1.50322076074926     -0.03841954473558
  H   3.33994323452838      2.54986164121656     -0.04187522143743
