22
Coordinates from ORCA-job ./opt_b97-3c_parallel
  N   1.35098677764947     -0.11788096985798     -0.06572788260037
  C   0.19173786044015     -0.06559987786595     -0.03175892669719
  C   -1.22126073912780     -0.01567654970910     -0.01728115206739
  C   -1.95681507414886     -0.54261921611630     -1.09494856929133
  C   -3.34325285543162     -0.49518196782049     -1.08396400092605
  C   -4.06443695176216      0.07779370616716     -0.00192349732754
  C   -3.39175634227864      0.60715180756805      1.07678274592239
  C   -1.91396543032795      0.55786410320887      1.06755011446456
  N   -1.46767257374258      1.11735297276220      2.19215054363154
  C   -2.62291437196908      1.47622817558185      2.82826495350515
  N   -2.58386042859378      2.07979709651527      4.01513607441080
  N   -3.80641667203281      1.19509112188547      2.20626137287998
  C   -5.44003576608385     -0.06177816141426     -0.35951229944294
  N   -6.47430119104181      0.33680868989109      0.36021671244956
  N   -5.59258850756769     -0.67674405459976     -1.57651349398885
  C   -4.35136117529819     -0.92856230293325     -1.99597109547201
  H   -1.42255392487645     -0.98182082547538     -1.92563441316745
  H   -1.69728489805276      2.26981902252783      4.44405106209251
  H   -3.43384785947760      2.33951801838579      4.47856922434063
  H   -6.32102610250195      0.78510055074740      1.24916112583972
  H   -7.40997885465612      0.19347450987464      0.02087540146814
  H   -4.19068491911782     -1.41765584932323     -2.94689400002394
