21
Coordinates from ORCA-job ./opt_b97-3c_parallel
  N   -4.06352451892070      1.51431967323242      0.00433150931005
  C   -3.03665839771255      0.96454708851690      0.00392537256710
  C   -1.88031581048467      0.18769616496908      0.00344395652886
  C   -1.91194405930368     -1.28330490752792      0.00441942197223
  N   -3.06147107707999     -1.95038274863340      0.00579389715787
  C   -0.61322936192125     -1.79823814044660      0.00368988267903
  C   0.26035347727479     -0.71326355418201      0.00229017157055
  C   -0.55459180749068      0.56066453047940      0.00212910222184
  N   -0.05134109497334      1.81143491909191      0.00092810194388
  C   1.26528633787939      1.91535057350989     -0.00018831486564
  C   2.13460947852322      0.80460615227979     -0.00016138949300
  C   1.62808449355111     -0.52937739234166      0.00108729388953
  C   2.79411820291600     -1.36320559704113      0.00072374046012
  N   3.91523809390175     -0.64735435268386     -0.00058849533344
  C   3.52302840110213      0.67002331217431     -0.00113676733394
  H   -3.08631927713647     -2.95393658774947      0.00645725746502
  H   -3.93935129868073     -1.45792762651074      0.00618423511315
  H   -0.35166402237813     -2.84335797226857      0.00414772377289
  H   1.66658172321931      2.92367811357748     -0.00115122626752
  H   2.82611377750576     -2.44356460504010      0.00139602093666
  H   4.26578897980855      1.45435127539423     -0.00220422019536
