23
Coordinates from ORCA-job ./opt_b97-3c_parallel
  N   4.32820876755025     -0.70385104662396     -0.04698627668129
  C   3.02657550326040     -0.32400650242146     -0.00287194018150
  C   2.59896689808803      1.04806414977894     -0.00288375482951
  C   1.22373085220565      1.05303588508909      0.00293748973145
  C   0.27578906211361      2.09598997159204      0.01001921381052
  C   -1.07091966612324      1.81756271953029      0.01699811246708
  C   -1.50932301764651      0.47768104429673      0.01796959027549
  C   -0.58908575303612     -0.60806481456405      0.01139464406281
  C   0.77803746403403     -0.37953053520093      0.00307105691000
  C   1.91741379944205     -1.18423595687919     -0.00237450867160
  C   -1.40246239732369     -1.79173192712769      0.01309112553779
  N   -2.69523681120500     -1.52789666297152      0.01978983876920
  C   -2.77635059167229     -0.13441675873433      0.02063677414797
  N   -3.99471963004333      0.41775920660598      0.04124926326714
  H   4.55803576277745     -1.65741631927921      0.16830429885855
  H   5.03250256135225     -0.03061317096510      0.19533652931412
  H   3.25557880556195      1.90443265986192     -0.01334419081008
  H   0.61711281577054      3.12312013458542      0.01038643367969
  H   -1.78343192302492      2.63439144894322      0.02518929619727
  H   1.95365765922878     -2.26178735668086     -0.00677085133220
  H   -1.05240989950283     -2.81522317569217      0.00808104441870
  H   -4.12437163794411      1.40544101015417     -0.06907093268778
  H   -4.79201898936295     -0.18538422469728     -0.05353766705381
