23
Coordinates from ORCA-job ./opt_b97-3c_parallel
  N   4.31457419411971     -0.63014515132929      0.06712368151512
  C   2.99258103457231     -0.32428540201948      0.01304378024939
  C   2.51048632256862      1.04550088972733      0.00683740351509
  C   1.14571279024927      1.00127484117465     -0.00692219799879
  N   0.26861999006493      2.04425470950441     -0.02010554869350
  C   -1.00949937436674      1.73694095801183     -0.03202248989519
  C   -1.50000426652563      0.41314145881120     -0.03171763926064
  C   -0.59785673116227     -0.69911439342088     -0.01797858761593
  C   0.74993568291443     -0.44816397071526     -0.00305562800771
  C   1.92793521210778     -1.21886080900716      0.01067520292223
  C   -1.39069904547981     -1.90783287995222     -0.01527859070008
  C   -2.70948422598209     -1.56394141277342     -0.02408831467285
  C   -2.80028813958758     -0.11618703324041     -0.03151761224846
  N   -3.96935435645076      0.55668516470200     -0.07787942260262
  H   4.97630740111814      0.07648265542566     -0.19941726488220
  H   4.59478751904980     -1.57206032222169     -0.14120511569037
  H   3.12788454481793      1.92985070946575      0.01867629614747
  H   -1.69894007888605      2.57922908333037     -0.04506176122939
  H   2.00059235521310     -2.29471838994101      0.01646172472343
  H   -0.99716408849189     -2.91236134190662     -0.00382370203403
  H   -3.55647018146548     -2.23289090193684     -0.02988970261181
  H   -3.97854327294586      1.54751559661495      0.08226135799761
  H   -4.82447251805185      0.07377249789611      0.12819487717320
