23
Coordinates from ORCA-job ./opt_b97-3c_parallel
  N   3.42448715026369     -0.40123169819312     -0.17408580606367
  C   2.25934611898233      0.22979836369346     -0.03343159142590
  N   2.18720863876023      1.58346253844479     -0.03272788734156
  C   0.86761037125259      1.85086528823609      0.05771266833003
  N   0.35653598218972      3.07000021545265      0.05831378404816
  C   0.06053770997830      0.65564893895358      0.12813304262469
  C   0.97598281758117     -0.41195199017556      0.10373495460478
  C   0.55497438556975     -1.74660138276110      0.06561724185006
  N   1.52677711617409     -2.77226208453984      0.07230335590780
  C   -0.81838444509459     -2.01682382396550     -0.00515809056375
  C   -1.73489719912735     -0.96919734476198     -0.01625601441926
  C   -1.29256400834737      0.42002021726229      0.06727197824236
  N   -2.36746521832488      1.23722051315865      0.04006277344371
  C   -3.38980540226762      0.34836857393677     -0.04780178560627
  N   -3.08914512200261     -0.96600096557980     -0.08331349236558
  H   4.22707609975626      0.14116874798590     -0.44639273593168
  H   3.40156899181327     -1.38245271111374     -0.40851758151687
  H   -0.64838183908056      3.17104443442701      0.07217255318870
  H   0.94684696691640      3.87634691562031     -0.04748979690806
  H   1.11108140024812     -3.68435146725574     -0.04634096586710
  H   2.06070498544620     -2.77884494843217      0.93160194137467
  H   -1.16907511205622     -3.04151718167251     -0.03147129118523
  H   -4.41603426053092      0.68583059517957     -0.08851115432001
