25
Coordinates from ORCA-job ./opt_b97-3c_parallel
  N   4.21594743454215      0.50293680133698     -0.01357783277414
  C   2.91117383536122      0.15744006884785     -0.02139995049250
  C   2.42377447474621     -1.16375198518342      0.03612312891326
  C   1.03697236747324     -1.08584278468190      0.02379961180421
  N   0.15649333964224     -2.07886456310354      0.03942906702005
  C   -1.15569163810919     -1.76138934425318      0.00271451395781
  N   -1.98897894105735     -2.82829638508607      0.00865028573688
  C   -1.62938288092521     -0.43619322626206     -0.03482144590193
  C   -0.69890055518661      0.64936662419106     -0.03639416670963
  C   0.66278334716757      0.38833700574881     -0.02825421200456
  C   1.83909954903862      1.10784632556500     -0.05578573594264
  C   -1.46552782202074      1.85674982839617     -0.02761341820493
  N   -0.94075164369911      3.11456964634067     -0.03768789452649
  C   -2.83422380535485      1.51367552985374     -0.04465362634876
  C   -2.92748025428641      0.12382015614481     -0.04664242881339
  H   4.47861334111044      1.44177414378538     -0.25199424264327
  H   4.91218321899508     -0.20226582323439     -0.17291042233036
  H   3.01406251345928     -2.06422109697638      0.06967922767642
  H   -2.98428062911108     -2.72971565205444     -0.00262542854695
  H   -1.58170658002407     -3.74355161953789      0.05545148607487
  H   1.97813994272480      2.17373271868028     -0.14933725746228
  H   -1.55180914604707      3.86458962789433      0.23645093067981
  H   -0.00265265995393      3.21121129853846      0.31077765420072
  H   -3.65863410141819      2.20937748302872     -0.04858903982120
  H   -3.86108188676704     -0.42111989617898     -0.04668836334102
