24
Coordinates from ORCA-job ./opt_b97-3c_parallel
  N   3.37922442893100     -0.57026120608031      0.18651476882608
  C   2.24397286065646      0.11874138513011      0.03883028506793
  N   2.26208732477852      1.48703266575439      0.03747459886306
  C   0.97878097358566      1.84529384199732     -0.06279008915194
  N   0.60042459380485      3.12020559836525     -0.08455097917403
  C   0.07627914594404      0.69818807549196     -0.13359509283593
  C   0.94138174174798     -0.42210297104498     -0.10993654344996
  C   0.42135550973541     -1.72885225132135     -0.08197065697551
  N   1.29942455905074     -2.82702009377369     -0.09208479818997
  N   -0.87647927939654     -1.96841233302075     -0.00531660694074
  C   -1.72447362914333     -0.91972834484719      0.01417128902901
  C   -1.28422959184874      0.52135554715277     -0.08382018163452
  C   -2.44433358456407      1.31215631103198     -0.05181757448787
  C   -3.52801385165860      0.43941072928096      0.05999890726039
  C   -3.10400499361529     -0.91217560467459      0.10366020392520
  H   4.19786935217396     -0.06365676229312      0.47772985744837
  H   3.30547559173546     -1.54295762521382      0.44282303395774
  H   1.28553712525749      3.84403801242836      0.04197540190654
  H   -0.37177800850889      3.36404043261397     -0.07791092165261
  H   0.75910390439716     -3.68156459397892     -0.05657108161831
  H   1.88202480747878     -2.84124191799258     -0.91958732708734
  H   -2.51571483467937      2.38741707370024     -0.11423754220355
  H   -4.56139790319030      0.75392876839642      0.10693748748939
  H   -3.73863790827255     -1.77883087840293      0.18613065452926
