23
Coordinates from ORCA-job ./opt_b97-3c_parallel
  N   3.97925429004066     -1.05809423440920     -0.01809981568401
  C   2.76045273580427     -0.46761710321200      0.00941986412164
  C   2.54665045496621      0.93817217853641     -0.01802757564475
  C   1.18013640652171      1.14962477730906     -0.01307116980571
  C   0.40842966736231      2.32084237121196     -0.01763038460766
  C   -0.97160156321885      2.25620102474378      0.00044700587223
  C   -1.60966642776706      1.00742695670378      0.01808348435937
  C   -0.87193901978877     -0.20619386104636      0.01893258117999
  C   0.51887453400521     -0.20063630867005      0.01125467471856
  C   1.52271110163394     -1.15932541622706      0.02434859897288
  C   -1.88156639843772     -1.22856723364009      0.01777919238313
  N   -1.69782175124786     -2.55008484210551      0.01406843532378
  N   -3.14323110577893     -0.71526955778377      0.02980293549274
  C   -2.96731911525644      0.61864940593643      0.02877175568016
  H   4.05407477544091     -2.03029759357077      0.22087456267067
  H   4.78951599377851     -0.50192093590544      0.18697392924898
  H   3.32074649092971      1.68907918576641     -0.03875247982596
  H   0.90543118219178      3.28227467710193     -0.03375374530059
  H   -1.55782615070488      3.16638027246515     -0.00282759371471
  H   1.42394272159690     -2.23338621344852      0.06013627413433
  H   -0.78736335767606     -2.94469478622246     -0.12466383000105
  H   -2.50262767711714     -3.14552860339711     -0.07532125365025
  H   -3.82721634337839      1.27508984356344      0.03301035337622
