21
Coordinates from ORCA-job ./opt_b97-3c_parallel
  N   -2.48631892239935      1.11046697465299      1.45557293405538
  C   -1.61254684135565      1.03863328480200      0.46030091621744
  N   -0.44801743676385      0.36861565362344      0.62684961946617
  C   0.18437082027861      0.49592715091953     -0.55938768717467
  N   1.36892122396727     -0.01810158021807     -0.82531001757066
  C   -0.57666246606235      1.26061709979118     -1.51790954949599
  C   -1.76254531792081      1.62449264567239     -0.86002523199840
  C   -2.74476460842548      2.38185424968286     -1.49960337174462
  C   -2.54741660313124      2.78779285454308     -2.82056196547204
  C   -1.37424080954638      2.43393992171905     -3.48677769156936
  C   -0.34830154131915      1.64346719438862     -2.82022879638539
  N   0.68264202108430      1.43277009580104     -3.66557837158273
  C   0.26148416141632      2.08211158351515     -4.78231347536586
  N   -0.93951708261697      2.69259035824136     -4.74530591889374
  H   -2.27641812503687      0.66505070375324      2.33164726532585
  H   -3.35493163636442      1.60120656702386      1.35677871671879
  H   1.87229836306148     -0.54578444565621     -0.13335964159243
  H   1.76303214241687      0.13047562455927     -1.74445902728659
  H   -3.65973049688772      2.66270727427643     -0.99228764742050
  H   -3.30045892405969      3.37501945947968     -3.32812412658992
  H   0.87323207966507      2.10708732942906     -5.67320693164075
