23
Coordinates from ORCA-job ./opt_b97-3c_parallel
  N   -4.14605445481721     -0.34611890352582      0.00186389828967
  C   -3.01705885169030     -0.06212413091277      0.00199631228640
  C   -1.71506695079140      0.43746863146247      0.00244284638745
  C   -1.41402837097315      1.88858607116811      0.00355316339841
  N   -2.36246967841423      2.81769366426835      0.00416634676951
  N   -0.11856088934679      2.15720812783431      0.00386849170520
  C   0.49747473137238      0.94008372563715      0.00301385984254
  C   -0.48782522889325     -0.17721181598662      0.00208399588085
  C   -0.06140147172815     -1.53673208437484      0.00108809670213
  C   -0.99869618125242     -2.59424500876208      0.00014452231711
  N   -1.76155052342835     -3.46969978272394     -0.00081590904893
  C   1.29726466060785     -1.79820124804000      0.00103931871401
  C   2.23047891379872     -0.74614800214303      0.00192886947331
  C   1.82814664861006      0.63487443670928      0.00292651368347
  C   3.03070227623985      1.43841442491559      0.00365438429172
  C   4.10471885260588      0.58732290815737      0.00312352288650
  C   3.62278764690182     -0.76191655616926      0.00206280192087
  H   -3.33568932855026      2.56717214367670      0.00392911722583
  H   -2.10632212326780      3.78942954229302      0.00493679032473
  H   1.63719596920125     -2.82446941280445      0.00029612502305
  H   3.05213644415658      2.51577440479684      0.00446636215286
  H   5.14428558658854      0.87247487426405      0.00344405704278
  H   4.24303229097034     -1.64611275014046      0.00146082363047
