21
Coordinates from ORCA-job ./opt_b97-3c_parallel
  N   -1.55205218910611      3.50474220757575     -5.25698247022379
  C   -1.34408247735040      2.85312475276531     -4.12015732149556
  N   -0.17918091833470      2.16122439125616     -3.92516252659975
  C   -0.34524141620813      1.66163878205309     -2.70437976004374
  N   0.51237981382511      0.90258809305124     -2.03914511153086
  C   0.11953152607159      0.51570502669065     -0.80984912709343
  N   1.00416913686209     -0.25178253570276     -0.15669226896291
  C   -1.12911747353826      0.87263100230352     -0.21625212594221
  C   -2.06523993599053      1.69583356015258     -0.93131353395976
  C   -1.70165927845547      2.11251129770131     -2.19102788352622
  N   -2.28287099467245      2.86089726699656     -3.12978120516535
  C   -3.20583013691136      1.88094014782766     -0.09474292811068
  C   -2.97987261293854      1.19935401553651      1.08598274279011
  C   -1.70545709289070      0.57672310798004      1.01956574003146
  H   -2.40867790269444      4.00968705343987     -5.39228770546287
  H   -0.85164098876665      3.48914707878730     -5.97527115486385
  H   0.83145921306443     -0.60128556744758      0.76585583084200
  H   1.86937355772542     -0.47292630423014     -0.61703723915486
  H   -4.08041429092014      2.45468263592700     -0.35484860767076
  H   -3.65329112340353      1.14255936756110      1.92647289785152
  H   -1.27728441536727     -0.02231538022516      1.81110375829158
