20
Coordinates from ORCA-job ./opt_b97-3c_parallel
  N   -2.03501437799970     -2.21988330745892     -0.00173469202098
  C   -1.88080710351178     -0.89749303571797     -0.00166413450703
  C   -0.65050466905929     -0.19939073197827     -0.00145743345905
  C   -0.96805400142036      1.18406145270239     -0.00140054778254
  C   0.02350900733648      2.13278325161500     -0.00107015840775
  N   1.35245396399719      1.83001968751575     -0.00080582178545
  C   1.67537762820908      0.56033338496395     -0.00084297971605
  C   0.69717596642062     -0.57882193324266     -0.00114837216248
  C   1.47521204273793     -1.70940195158467     -0.00109747216842
  C   2.83182266538473     -1.23151487894339     -0.00075878169296
  N   2.96487269593653      0.08542917657096     -0.00060919830341
  C   -2.41980066848588      1.30758207192755     -0.00163775571619
  C   -2.96924933449575      0.06636543040397     -0.00179407005873
  H   -1.23632270975607     -2.82850135802955     -0.00150068447741
  H   -2.94411346303892     -2.64497009072412     -0.00171842436252
  H   -0.21328190459278      3.19066376889580     -0.00099766491830
  H   1.18356581882797     -2.74897853903826     -0.00128878028488
  H   3.70969345956395     -1.86552612826296     -0.00062653733550
  H   -2.96110720640921      2.24115258350873     -0.00168472242863
  H   -4.01763362704477     -0.18615881502331     -0.00199204841172
