21
Coordinates from ORCA-job ./opt_b97-3c_parallel
  N   -1.47383193049734     -2.75645557973555     -0.02887539136571
  C   -1.60279177622940     -1.43908421451380     -0.00469051494377
  C   -0.49209696221736     -0.51504882744038     -0.00785124033374
  C   -1.08473399891072      0.77609488852522      0.02475282534449
  C   -0.24524689061276      1.92554541662966      0.03735780783764
  N   -0.75554112053882      3.18532033759854      0.09528781205544
  N   1.09249569753433      1.84161568678923      0.03544688173656
  C   1.64517958658572      0.62359272193093      0.01992934551744
  C   0.86251972075300     -0.65410916809051     -0.00744761019731
  N   1.66214909383401     -1.73875205412159     -0.02534570379842
  C   2.91372915013980     -1.20582382390249     -0.01156576214432
  C   2.96938506859992      0.20174684871439      0.01433925922329
  C   -2.46869559305087      0.52400814447197      0.04858185813961
  N   -2.78854625156489     -0.79186031124393      0.02837783384020
  H   -2.28612464409988     -3.34845895436041     -0.01445016050300
  H   -0.54851158251165     -3.15818393996874     -0.04181341446625
  H   -0.09587179209302      3.92361405925892     -0.08253706239936
  H   -1.69905442645469      3.34991971844896     -0.20341553763608
  H   3.77005288308604     -1.86738564477457     -0.01997823198021
  H   3.85458802494520      0.81392110381575      0.02928473398653
  H   -3.26863392839661      1.25139877696837      0.08805112878692
