24
Coordinates from ORCA-job ./opt_b97-3c_parallel
  N   -4.16633133970409      0.45586981613429      0.00941684111030
  C   -2.84971062579882      0.19740614974478     -0.01409274673925
  N   -2.42204210850303     -1.08028255742578      0.00366105441818
  C   -1.07747317537161     -0.98783408266225     -0.01074684308725
  N   -0.25752984553600     -2.01460923928688     -0.01411881003252
  C   1.07730229075532     -1.75618708562210     -0.03854756419336
  N   1.85096923997627     -2.87348748553240     -0.07765952439698
  C   1.61077908893243     -0.46187972613309     -0.05668599313427
  C   0.73423154837107      0.66817141742966     -0.03930463271467
  C   -0.63854018616315      0.45944049935517     -0.02793577428395
  C   -1.80838823463327      1.18450128889595     -0.03281947277448
  C   1.55377793592726      1.83299859747137     -0.01841907252330
  N   1.09777600820959      3.11363624442529     -0.01768303024766
  C   2.91066522196386      1.42330561958869     -0.04378527336930
  C   2.94051355944256      0.03712461595661     -0.06636559491637
  H   -4.51181616728750      1.37878797973717     -0.17410948009623
  H   -4.79693191253673     -0.31796473438779     -0.10606495878137
  H   1.37796647226865     -3.73272429312182      0.14324003944759
  H   2.81929965308987     -2.81249330910667      0.17620069465925
  H   -1.95760360919554      2.25185901049194     -0.07937767095575
  H   1.74157109273579      3.83720366105901      0.25064731784275
  H   0.15441267481052      3.26464383771916      0.29398419589965
  H   3.76523217846327      2.08167623884597     -0.04730148915017
  H   3.84555828948326     -0.55259518147626     -0.09078378828084
