19
Coordinates from ORCA-job ./opt_b97-3c_parallel
  N   -1.90680660233913     -2.20893453008085      0.00045801175310
  C   -1.82562817387143     -0.89416614403575      0.00067668975226
  C   -0.57196982632919     -0.15275147500429      0.00042234906889
  C   -0.95311975465965      1.21020381812803      0.00079627540897
  C   0.03497352028818      2.21754185022368      0.00062228843194
  N   1.33375156300967      1.95914838274616      0.00011446214146
  C   1.70287698113987      0.65616500167821     -0.00026681009402
  C   0.74590370165306     -0.48469587850477     -0.00017972706738
  N   1.37869453933953     -1.68678780310432     -0.00062525080812
  C   2.68359068529461     -1.35024535088869     -0.00097562859622
  C   2.94362955019965      0.04854009728161     -0.00077653150704
  C   -2.36434733360364      1.18075157814000      0.00124735519538
  N   -2.89262008929301     -0.06682536211524      0.00117804816637
  H   -1.05745836737958     -2.75478281742574      0.00002651686753
  H   -2.80401562771633     -2.66503031850773      0.00058433223036
  H   -0.24944169359062      3.26451223043868      0.00089791693657
  H   3.43656495541314     -2.12733449439154     -0.00136974229309
  H   3.90961653957919      0.52406065522303     -0.00098780581064
  H   -3.02882624663430      2.03398001189953      0.00162530872366
