23
Coordinates from ORCA-job ./opt_b97-3c_parallel
  N   -0.91738817745822     -2.89515636933581      0.02058146110313
  C   -1.34255410424105     -1.63457119601360     -0.00436513050400
  C   -0.45414702877365     -0.53045802152374     -0.02061621813078
  C   -1.22509412587696      0.65535270964784     -0.03851167024808
  C   -0.59548818059508      1.90220201086657     -0.04772775543396
  N   -1.29435298368444      3.08553096279195     -0.11789376374405
  C   0.83315075397075      1.96083510195034     -0.04691820159860
  C   1.59248523101767      0.81745116892946     -0.02199510355799
  C   0.93249349092295     -0.50402934074574     -0.00702268564204
  N   1.80944016096144     -1.50578512807486      0.01499672859117
  C   3.04712264692173     -0.87173966744102      0.01535480940059
  C   2.97937885691449      0.50486089092000     -0.00650725165481
  C   -2.61061061563528      0.24264807695927     -0.03764478891996
  C   -2.69077461185577     -1.12694999002033     -0.01684019227569
  H   -1.54656415838152     -3.67632597175332      0.03833664567676
  H   0.08474028504464     -3.05239513433537      0.02896618165963
  H   -0.80887637386929      3.90853615670652      0.19449326452952
  H   -2.25590887542014      3.06449566810542      0.17217239352272
  H   1.30468292520775      2.93720260276175     -0.06758596249169
  H   3.94567874699789     -1.47237728118531      0.03147274910796
  H   3.80679302825422      1.19468061931162     -0.01100320140159
  H   -3.46831516605674      0.89980023122382     -0.06043965725688
  H   -3.59006636776539     -1.72128265094548     -0.01608795833134
