21
Coordinates from ORCA-job ./opt_b97-3c_parallel
  N   1.82534862900616      2.48763267853103     -0.00058168403163
  C   0.95510903960813      1.45696865571100     -0.00133962017687
  C   -0.45953167429444      1.79908263389832     -0.00138292521850
  C   -1.39420240620166      0.82507008454374     -0.00172718020775
  C   -1.00314896606215     -0.62061401411561     -0.00195344012426
  C   0.37772805680203     -0.92992686723430     -0.00188333219430
  C   1.34396620094371      0.12599675326470     -0.00158428896216
  C   2.64615467550615     -0.49252329589438     -0.00176387485643
  C   2.47180603341660     -1.85786382710053     -0.00222806796841
  C   1.07498527760328     -2.13677144852532     -0.00228591383657
  N   -2.05939046666486     -1.39542755517189     -0.00217828621884
  C   -3.16505239680244     -0.51466255909825     -0.00214852587520
  C   -2.82993639125395      0.80360702808290     -0.00189647169954
  H   2.81572723301584      2.33403213480559     -0.00238355809436
  H   1.50509636583684      3.43715554417984     -0.00298965395050
  H   -0.73386029664015      2.84818819982203     -0.00107298053662
  H   3.60011077258825      0.01484593357343     -0.00154197770175
  H   3.25732008387859     -2.59653889130736     -0.00246629797853
  H   0.62148430074377     -3.11545340072562     -0.00266147453515
  H   -4.15934547732377     -0.93637155538671     -0.00232021106904
  H   -3.49218168960595      1.65282876614735     -0.00182546136359
