23
Coordinates from ORCA-job ./opt_b97-3c_parallel
  N   -4.19033213009243      0.47446671592302     -0.02174194680354
  C   -2.87585767275141      0.22066486871101     -0.01953874924705
  N   -2.45183342067423     -1.06505295516866      0.03318178760020
  C   -1.11376764968448     -0.97968442576605      0.03308564910066
  N   -0.29745740102641     -2.01703005998331      0.06093823169662
  C   1.03164629430075     -1.77646978764539      0.04470473466240
  N   1.80489772846561     -2.88778445094305      0.10206389741743
  C   1.57383186391855     -0.47644717119690      0.00986701811195
  C   0.70519792123121      0.65939336718392     -0.02201956034074
  C   -0.66719287759812      0.46539698432545     -0.01980448474180
  C   -1.83258606831348      1.19786380001395     -0.05212473457027
  C   1.58435910400559      1.77895080353033     -0.03136059618870
  N   1.25090705339182      3.08489821873219     -0.08091109431836
  N   2.89029705030384      1.40024858551899     -0.01826468385763
  C   2.87737558155543      0.05662768062336      0.00781413865896
  H   -4.54481984013165      1.40006452288351     -0.16863047173949
  H   -4.82542120900652     -0.30153325037977     -0.08016461550314
  H   1.33157232308326     -3.76224608027154     -0.04567454888365
  H   2.77501937558886     -2.84019482165939     -0.14661955662056
  H   -1.96914268949069      2.26584796486093     -0.11428349988278
  H   0.32344183099455      3.35846348695484      0.18726462404330
  H   1.98705979275296      3.74361613567720      0.10785741404842
  H   3.81481300277706     -0.48236200162467      0.03572924405778
