28
Coordinates from ORCA-job ./opt_b97-3c_parallel
  N   4.48507001714798     -1.82916602310409      0.15650165975144
  C   3.53705878427240     -1.15255294282486      0.08372602827210
  C   2.43519004965412     -0.30747941682541      0.00292148497732
  C   2.48729406115083      1.12689532448038     -0.02080894730110
  N   3.62254872984288      1.85707253425886     -0.03146821688068
  N   1.27320675450478      1.70660265219032     -0.07850029946014
  C   0.39411597621552      0.66727415685131     -0.09602903511365
  C   1.06302412233686     -0.63054150474199     -0.03484945407967
  C   0.32848797469516     -1.81023477298204     -0.04246679140617
  C   -1.07174140529024     -1.76723575633016     -0.08620781661142
  N   -1.84667811836419     -2.94833525537424     -0.08783193373031
  C   -1.71454265216734     -0.52644983907851     -0.10583186695284
  C   -0.97551339720339      0.67854332787103     -0.14004256044491
  C   -1.91464815096057      1.77908136877057     -0.05744299610098
  N   -1.49473293355399      3.04510126553900     -0.08177093219721
  C   -3.20736417881710      1.25864520133793      0.05438540318080
  C   -3.09303278761061     -0.14818834467185      0.05274591510613
  N   -4.10240631417550     -1.03206618182685      0.18677909813123
  H   3.54096929945508      2.83609012998791      0.17633796208593
  H   4.48164945236291      1.40828810802670      0.23263255563174
  H   0.83538219743199     -2.76759772774286     -0.04137776442078
  H   -2.40733657115742     -3.02990659911167     -0.92597734286893
  H   -1.27214716147435     -3.77467180005021     -0.00981801131030
  H   -0.49685452548500      3.21017517597337     -0.08631845017965
  H   -2.11870893795715      3.81504947360756      0.07320399176543
  H   -4.12438720130750      1.81842438889409      0.14240811002209
  H   -3.84113275838329     -1.96905394093024      0.46038853441485
  H   -4.98340979616290     -0.70015603479405      0.53935565821965
