25
Coordinates from ORCA-job ./opt_b97-3c_parallel
  N   -4.55065345044965      1.58381681220001     -0.02698056857644
  C   -3.51827877985435      1.04333268647190     -0.01078878905776
  C   -2.33670698357475      0.30625864833994      0.00240279980057
  C   -2.28063394371677     -1.13352131291668     -0.00193691601596
  N   -3.35780438268482     -1.93486371892477      0.02982397632452
  N   -1.02728238934210     -1.62968923775755     -0.00684700679177
  C   -0.23068574766168     -0.53087215697929     -0.00480530784972
  C   -0.99649215594151      0.72521738474205     -0.00094903062421
  N   -0.45462956425000      1.94791697798595     -0.00266020537686
  C   0.88386750106673      2.01253326005022     -0.00674844765943
  C   1.70283448431469      0.89114195211398     -0.00932576123084
  C   1.12829043354185     -0.40426989115998     -0.00958251271267
  C   2.20257515482656     -1.37567596155783     -0.00964652804156
  N   1.95110172032675     -2.68369852383844     -0.00909481090712
  C   3.42025606880139     -0.69069409394420     -0.00904023997883
  C   3.13207837661756      0.69137473194453     -0.00799576917444
  N   4.04070430092005      1.67406691304663     -0.01843610166600
  H   -4.26876224935192     -1.54417807958738     -0.13141430884325
  H   -3.22805392589469     -2.91507678915146     -0.14217258259411
  H   1.29879030224930      3.01667238834032     -0.00873287138090
  H   2.68094745462014     -3.37176140594521     -0.00269713989968
  H   0.98770621037339     -2.98630485405353     -0.00376535306391
  H   4.40508473041124     -1.12908284698330     -0.01052546013683
  H   3.76112839445088      2.63512805562682      0.03711919982116
  H   5.02238128300179      1.47744986053717      0.03641570633593
