31
Coordinates from ORCA-job ./opt_b97-3c_parallel
  N   -4.41831414739168     -1.52233791189516     -0.16054666502977
  C   -3.40291502765749     -0.95378269207693     -0.10956708866386
  C   -2.26605745332111     -0.14621337072497     -0.05054976667233
  C   -2.35452031816146      1.27559347717688     -0.02616128622947
  N   -3.49888456938886      1.96655396433609     -0.06492632497239
  C   -1.05001894718967      1.82834242498969      0.03203374607942
  C   -0.81011376721192      3.19237721677122      0.09103258332793
  N   -0.61435267552639      4.34430542082442      0.14269200251125
  C   -0.11849479372225      0.74612951080486      0.04629560278388
  C   -0.90416255519047     -0.49446785852671     -0.00635544875044
  C   -0.27741362193290     -1.74653030596642      0.02604912712964
  C   -1.00566820237552     -2.95327189021693      0.05281044548760
  N   -1.50337477147103     -4.00395675588959      0.08299790667429
  C   1.13860421418770     -1.83125721690434      0.07860306019122
  N   1.79069830188864     -3.07076581107498      0.12276471878466
  C   1.86857352618976     -0.65494229551315      0.06425634238365
  C   1.25705319071725      0.63323896673734      0.07750047669562
  C   2.35782485353981      1.60472357373850      0.02012686566557
  N   2.23718996553716      2.92858118464144      0.03683755431828
  C   3.56928033455998      0.91187127356388     -0.07366393370183
  C   3.28876906982387     -0.45814864614295     -0.07786421545458
  N   4.17672017792037     -1.45854371939694     -0.20480084728297
  H   -3.50241182652753      2.96732131477615      0.00720286952125
  H   -4.38081365968501      1.48583448441253     -0.05532680476041
  H   1.14867934662494     -3.84993760799623      0.06775563960930
  H   2.36058455651403     -3.17707122110343      0.95075513146345
  H   1.34739354510815      3.40091675054025      0.08994474222025
  H   3.05371658351437      3.50899831372226     -0.03023299552300
  H   4.54613952995352      1.36022666474508     -0.15628130806040
  H   5.10644356609065     -1.24122033182538     -0.51925938852453
  H   3.81135956508320     -2.36330097112679     -0.46794875392117
