29
Coordinates from ORCA-job ./opt_b97-3c_parallel
  N   -5.40762802571474     -1.49563367378558     -0.14537816130857
  C   -4.29993281649096     -1.14595773451439     -0.07078840441406
  C   -3.00782800875519     -0.61664705403551      0.00553164463622
  C   -2.74432340541724      0.80829371705463     -0.03786505896795
  N   -3.70632724045068      1.74063412514053     -0.16145023709056
  C   -1.35024344263812      0.99830809728139      0.05375213922154
  C   -0.56982045111048      2.17141515063617      0.07096722560453
  N   -1.17735102780694      3.40980237757233      0.12881406682928
  C   0.82563383737334      2.06448159198123      0.00349965191285
  C   1.42826632256688      0.82105944776902     -0.01603435034611
  C   0.62959589066383     -0.42054129951721      0.04522947958074
  C   -0.74881386439840     -0.30217328145404      0.07981567403113
  C   -1.78939848099488     -1.27336403710975      0.06916083303786
  C   1.52119753606904     -1.50641322822599      0.03886930034282
  C   1.22455966433373     -2.86643249839130      0.08056080089624
  N   1.00670823537698     -4.01115249146685      0.11397740262540
  C   2.84576168286589     -0.97393218230766     -0.01753020640181
  N   3.96217944113477     -1.69816664794093     -0.03713584571397
  C   2.78647500777775      0.45078227923803     -0.04917662154853
  C   3.90133052272708      1.28473752168134     -0.09914063188127
  N   4.85465470501673      1.95429095425210     -0.13909208343857
  H   -4.63895596393170      1.42322195267057     -0.37554082700457
  H   -3.45699049614651      2.63651353601118     -0.54805191671868
  H   -0.54450815439977      4.18443224078536      0.24951167073261
  H   -1.95648191240315      3.47496745645846      0.76611479197747
  H   1.43576535234344      2.95859399433207      0.01028388807660
  H   -1.65669888294396     -2.34234300800694      0.08533402200514
  H   4.86301559145249     -1.25490770640111     -0.07597575823944
  H   3.92573025330081     -2.70202339880717     -0.01416663013628
