23
Coordinates from ORCA-job ./opt_b97-3c_parallel
  N   1.43991909916005     -0.00113327416689      0.23629431415686
  C   0.29136001698877      0.04592452748043      0.05168998027292
  C   -1.10061704774121      0.03966212486016     -0.07220161588035
  C   -1.96701887003944     -0.68175333499492      0.85107155360200
  N   -1.50905103964811     -1.36976789702182      1.90133737334032
  C   -3.30560365172123     -0.48546881857176      0.44832393858555
  C   -4.51710917711025     -0.94084299224957      1.01714165123913
  N   -4.48414381468652     -1.87469723339250      2.04080008936466
  C   -5.73504029655688     -0.42447155325497      0.55578825324481
  C   -5.73231026033703      0.47606768692304     -0.49484281541874
  C   -4.47039345079617      0.90703129461177     -1.15218714340328
  C   -3.27564434506072      0.41113415822474     -0.66329156720144
  C   -1.91356517459023      0.69859812489682     -0.97395167634917
  N   -4.77495051568071      1.75738484619948     -2.14545037907710
  C   -6.12749875364052      1.81173686115567     -2.07590322903481
  N   -6.75608577824139      1.07962791596860     -1.12759529706363
  H   -0.53476010337574     -1.28349861892236      2.14547961460769
  H   -2.14289427225986     -1.59123642752773      2.65271423153074
  H   -3.86954024028381     -2.65815178266377      1.87422876793816
  H   -5.39341106291501     -2.19617670119885      2.33401526144427
  H   -6.67091194547010     -0.76402272628925      0.98093614450203
  H   -1.58152795828169      1.34458326156149     -1.76955171929051
  H   -6.69089135771207      2.42673055837213     -2.76377573111008
