27
Coordinates from ORCA-job ./opt_b97-3c_parallel
  N   4.32510822502007     -2.18794812929201      0.17874504634006
  C   3.35692524688853     -1.54358399391755      0.09933874872691
  C   2.20365656634531     -0.76971551621045      0.00737293807473
  C   2.14345465385458      0.64170101681222      0.02477848177894
  N   3.17996581993093      1.46486602537699      0.14094105131024
  C   0.76798075631812      1.05581106584229     -0.08273264891435
  C   0.22781249347582      2.34234974812057     -0.06505192142273
  N   1.09505554322025      3.45925817761758     -0.11802572779028
  C   -1.16017849246915      2.48619671167604      0.02030049985144
  C   -1.97486129713615      1.36837736084492      0.04792159237059
  C   -1.41852558075619      0.01241083628732     -0.02852473815011
  C   -0.03806090787023     -0.11208174463443     -0.08624518113175
  C   0.86713003764077     -1.25134288462743     -0.05408176668178
  N   0.53622405796728     -2.52731332787251     -0.05693361930899
  C   -2.55565151981874     -0.82881803718279     -0.00371341159052
  C   -2.57010672636829     -2.21879972847514     -0.06308753370700
  N   -2.50463650628584     -3.38348674205167     -0.11678219712870
  C   -3.66817451242157      0.05202764984933      0.07855774165383
  N   -3.33445850791927      1.34294979188827      0.10947102480700
  H   2.98614835956028      2.43757052905039      0.34013898703460
  H   4.08921093288837      1.09627559774022      0.36702154692451
  H   0.59967830283589      4.32306956561959      0.04873694846174
  H   1.55586013516634      3.53422205018709     -1.01652800270083
  H   -1.61302928353941      3.46927837776907      0.03546253084786
  H   1.25219932988016     -3.23390376634789     -0.01091153720427
  H   -0.42650630857922     -2.84216402529138     -0.08885170654019
  H   -4.70272018722863     -0.25755347507867      0.11291319708903
