25
Coordinates from ORCA-job ./opt_b97-3c_parallel
  N   4.38807931123484      2.17926528093620     -0.17084630219051
  C   3.34501955257087      1.67304886352398     -0.07963780787709
  C   2.14636670996563      0.95547463759699      0.01443939712987
  C   2.10693861109818     -0.52212512819295     -0.02820380496269
  N   3.20040340769600     -1.26879185554368     -0.19512485393253
  C   0.77892830061261     -0.92228719169931      0.09869782937665
  C   0.15647223140406     -2.20181264784027      0.07842853661592
  N   0.94488149823017     -3.34435773438062      0.12026914708500
  N   -1.14879149935217     -2.35832048941550     -0.01509373008005
  C   -1.91742866539022     -1.24834882269678     -0.04737015835742
  C   -1.37479078722152      0.13968807994912      0.06519905580250
  C   -0.01949369867336      0.26666372659219      0.13376478878109
  C   0.86321272975800      1.41330876092247      0.10937735713875
  C   -2.48531400313221      1.03382432037774      0.02031540957568
  C   -2.40508816822680      2.42736141049390      0.09146191003278
  N   -2.28235865346328      3.58377434010571      0.15290944387488
  C   -3.62705482159617      0.23879364999422     -0.11053734820640
  C   -3.28906302716839     -1.13954373029470     -0.15259433417960
  H   3.09468822379331     -2.23427098169180     -0.46401887612715
  H   4.07450304284680     -0.82257258125205     -0.42151791214361
  H   0.36948027668224     -4.17452444945883      0.15413705566926
  H   1.62261582897029     -3.34931458980810      0.86962741551955
  H   0.55277907070360      2.44435796258277      0.13722661743719
  H   -4.63070086226771      0.63061978370467     -0.17311105003890
  H   -3.98391810347497     -1.95663656080548     -0.24862118074327
