27
Coordinates from ORCA-job ./opt_b97-3c_parallel
  N   4.55164641451911      2.45147197910667     -0.13888648731963
  C   3.55016491904128      1.86322992731165     -0.06330010857433
  C   2.40596838418462      1.06163861608302      0.01227891615746
  C   2.46340630834983     -0.39145181854216     -0.04713755687246
  N   3.61282457727702     -1.08914985174513     -0.17037987614656
  C   1.15335855440126     -0.87582635901557      0.03967342569747
  C   0.61838155935095     -2.18553320724096      0.05511905707885
  N   1.45449636656171     -3.27900006661411      0.10705167131707
  N   -0.68537610528843     -2.43825444406719     -0.00564165760087
  C   -1.52356048003890     -1.39061289908774     -0.02856576515312
  C   -1.07934984738322      0.04057017837460      0.06071063186262
  C   0.27808927458046      0.26237222121837      0.09127392707305
  C   1.07747993314124      1.44109899724259      0.08998316549437
  C   -2.23009326265463      0.83759382699996      0.04962035472631
  C   -2.33350580852378      2.22403148642341      0.10016170148334
  N   -2.46015532854704      3.38309096327280      0.14034462422810
  C   -3.34746548261201     -0.05680107654414     -0.04855924221579
  N   -4.61639166502581      0.35287815411108     -0.08893507658219
  C   -2.90235583525017     -1.40424451994370     -0.09456909620564
  H   4.44670261215256     -0.56969417001693     -0.39472994353376
  H   3.56166082236948     -2.00686953000088     -0.58212432329009
  H   2.24013840213145     -3.19515016820656      0.73379338457057
  H   0.94365628399363     -4.13912663912452      0.24086219641448
  H   0.71312323685831      2.45429805094617      0.12184298924021
  H   -5.37444348598141     -0.29851292847283     -0.16827991775089
  H   -4.83893785768488      1.33281627711132     -0.05669730299056
  H   -3.53036900302286     -2.27683926417888     -0.16129962860806
