29
Coordinates from ORCA-job ./opt_b97-3c_parallel
  N   4.01089337041157      2.10121658772896      0.17578339874109
  C   3.10398135917662      1.37283920475512      0.11512046732478
  C   2.11625750821174      0.38971385087135      0.04524085225349
  C   2.44425574931783     -1.01640318111826      0.01390056999104
  N   3.68789483876476     -1.48970958073033      0.04235812181698
  C   1.25718908525970     -1.77756111348434     -0.04817939557580
  C   1.20675609432227     -3.16861737426171     -0.08841941590479
  N   1.18876887038445     -4.33391516508175     -0.12024656489851
  C   0.17252272595753     -0.86469516969427     -0.06105030424121
  C   0.72600645102381      0.50105037617044      0.00527922684999
  C   -0.12531640714572      1.61986347431825     -0.01426285154072
  C   0.36336338133158      2.94021047626541     -0.04425915720353
  N   0.65514877006396      4.06572681155784     -0.07908503637503
  C   -1.52981668159589      1.43597730182492     -0.07388654076519
  N   -2.37841982257237      2.52014105978595     -0.11898919525685
  C   -2.04269259393561      0.13104552145649     -0.05966823147675
  C   -1.19108139375881     -1.01770414776747     -0.09544863072815
  C   -2.03431563514653     -2.18697516377191     -0.06334768115484
  C   -3.33768547283938     -1.78840963382772      0.02934310809335
  C   -3.36781251114082     -0.34927876439749      0.06723991911327
  N   -4.48383932931162      0.39115413146366      0.22368954674464
  H   3.86411937740719     -2.47843966534486      0.02128711627454
  H   4.47357924980804     -0.86423389072386      0.08616204842494
  H   -1.91809669150828      3.41590054925761     -0.19803683718292
  H   -3.13687456508856      2.43720259596785     -0.77814938857081
  H   -1.67961381740314     -3.20452051622645     -0.08580555982520
  H   -4.20668908167234     -2.42406323397623      0.09180132403426
  H   -4.38131360713934      1.32876324577281      0.57984685347303
  H   -5.32536612268319     -0.08022102429139      0.50856940356482
