22
Coordinates from ORCA-job ./opt_b97-3c_parallel
  N   5.21067311728155     -0.26014633734327     -0.00170251778600
  C   4.04936976029894     -0.32663139439866     -0.00158060181454
  C   2.65125025141957     -0.28218979045477     -0.00131132987103
  C   1.90246891972187      0.98836026606786     -0.00139769561039
  N   2.50772361184146      2.16246470633160     -0.00172285463269
  C   0.52141929141962      0.69157537732234     -0.00107511949164
  C   -0.60149742651903      1.52871928257136     -0.00100500893593
  C   -1.88364473417645      0.98927980423663     -0.00066423096814
  C   -3.01166857400292      1.84349454175795     -0.00062210765117
  N   -3.91463682795134      2.57210722371115     -0.00072284575111
  C   -2.02414617922577     -0.42086072339671     -0.00037543232530
  C   -0.83572358252356     -1.30050067878700     -0.00045301542601
  C   0.41268010687834     -0.73180638772458     -0.00079939923396
  C   1.73806904881535     -1.29961536670504     -0.00095838350206
  N   -1.25840524959576     -2.59021442674524     -0.00013208988343
  C   -2.58635925016929     -2.45604215793235      0.00010695726426
  N   -3.10937461144856     -1.18067038378885     -0.00002056088144
  H   3.51344693147642      2.22320409436604     -0.00191773388679
  H   1.99174371315699      3.02491168647845     -0.00177054963624
  H   -0.49691126902348      2.60536534420373     -0.00122027974267
  H   1.95960006064394     -2.35399713452338     -0.00081945790028
  H   -3.24247839251784     -3.31419744664730      0.00039353706654
