25
Coordinates from ORCA-job ./opt_b97-3c_parallel
  N   5.11879495688737     -0.12901034717763     -0.00207189282986
  C   3.95269180436900     -0.13476985555989     -0.00175206354246
  C   2.56177004696110     -0.14280461156809     -0.00135264263621
  C   1.72542218737203     -1.28801594643686     -0.00074204822778
  N   2.16255941349491     -2.53842881300569     -0.00045836127251
  C   0.34479968220916     -0.86747538881114     -0.00048944634370
  C   -0.82096200913587     -1.61338161001106      0.00008685599345
  C   -2.06442561352164     -0.96129570598069      0.00022002876650
  C   -3.24909116198735     -1.73641038307894      0.00079267131151
  N   -4.18833567485569     -2.41788431317248      0.00114915759192
  C   -2.11660559450683      0.44171448984623     -0.00021811837395
  C   -0.86696096550015      1.24469093584674     -0.00083970851684
  C   0.33338971541087      0.55093346822417     -0.00095059743607
  C   1.70794302849943      0.99011032471952     -0.00148600600380
  N   2.11012002180106      2.25009301482825     -0.00201409066747
  C   -1.30843171608638      2.57175671553510     -0.00114417775339
  C   -2.70630431069700      2.49440197915894     -0.00071856280656
  N   -3.19830891415667      1.22774492768454     -0.00016382145093
  H   1.52691783638978     -3.31502758558619     -0.00002395512961
  H   3.14757357275837     -2.74214650944250     -0.00066867236886
  H   -0.80752692187309     -2.69468657108430      0.00043701808827
  H   1.44289793248784      3.00002269308166     -0.00208544840308
  H   3.08803405468621      2.48585519391818     -0.00237533664316
  H   -0.73360130300274      3.48464812859668     -0.00160855998924
  H   -3.38904622220375      3.33266207347549     -0.00079514195617
