23
Coordinates from ORCA-job ./opt_b97-3c_parallel
  N   1.44548562271174     -0.09890874805580     -0.25276034876479
  C   0.29497761952685     -0.07999486360127     -0.07325554051077
  C   -1.09828201432815     -0.05932459899020      0.02930427308843
  C   -1.97510966554390     -0.06826549002374     -1.13537704680166
  N   -1.51312585747662     -0.09668354244654     -2.38493707457044
  C   -3.31363973486400     -0.04202060880754     -0.68234886813289
  C   -4.52950715773254     -0.03781334493859     -1.38314684454518
  C   -5.73757505581168     -0.00909526846607     -0.71250735888089
  C   -5.72918580248167      0.01585876457732      0.68785098076983
  C   -4.45471094954111      0.01199217591354      1.45349720637121
  C   -3.26360539159489     -0.01713484844099      0.74830005935802
  C   -1.89880432330072     -0.02838809273338      1.15522097663812
  N   -4.73635474485830      0.03944423564853      2.76399845628667
  C   -6.09287751737421      0.05818447630177      2.76609339450250
  N   -6.78984408536666      0.08820790652525      3.90255034454765
  N   -6.74081231426440      0.04537494682996      1.55492774461229
  H   -2.13008195384811     -0.10300903085942     -3.17555142426657
  H   -0.52369589791205     -0.11387063670510     -2.56370860430843
  H   -4.53578278033268     -0.05709957368794     -2.46704630764556
  H   -6.67531573003955     -0.00575713734571     -1.24902569363823
  H   -1.54887014267348     -0.01493533624824      2.17424016551567
  H   -6.31069344001638      0.09735494249676      4.78323848682218
  H   -7.79179868287749      0.10145367305740      3.87164302355277
