26
Coordinates from ORCA-job ./opt_b97-3c_parallel
  N   -4.51867042975647     -1.55289888585760      0.00169709155649
  C   -3.49320593779431     -0.99731144632454      0.00048144417346
  C   -2.27560117830929     -0.32572169614096     -0.00076047152438
  C   -2.09417696404278      1.07554244956852     -0.00133101381004
  N   -3.08098056787685      1.96193226847941     -0.00154770127865
  C   -0.68638277690834      1.37585497740695     -0.00161573888296
  C   -0.04079625640855      2.60886212220202     -0.00114626692709
  C   1.34531750300431      2.64738759815002     -0.00000372374645
  C   2.08391549525212      1.46816579438749      0.00058961623234
  C   1.41179765662030      0.15351503770966     -0.00034038080770
  C   0.02153659719091      0.14730525906390     -0.00111983183717
  C   -0.98360920016623     -0.91728926726994     -0.00049047330518
  N   -0.77701285498978     -2.21538049309831      0.00042820037809
  C   2.44446907768928     -0.82093923953052      0.00031069220573
  C   2.28194553090628     -2.20130824765005     -0.00116594582857
  N   2.07289837430576     -3.35141547066007     -0.00253344182387
  C   3.68583043523884     -0.12845657410366      0.00181839409261
  C   3.47100380264261      1.24032611675536      0.00168475437717
  H   -2.89791581054428      2.94813268398314     -0.00173310857595
  H   -4.04155652039141      1.66432517944588     -0.00093478661489
  H   -0.60019750250590      3.53594738242162     -0.00171717557281
  H   1.85824385432053      3.60008768710627      0.00043472876907
  H   -1.56203156817026     -2.84713788811236      0.00090339987337
  H   0.15149578344951     -2.62661402170802      0.00009969439585
  H   4.64591045247973     -0.62062030306303      0.00248335291765
  H   4.23394885046429      2.00181319873881      0.00239571326388
