24
Coordinates from ORCA-job ./opt_b97-3c_parallel
  N   4.68300077456973      1.74252740404497      0.00328963843677
  C   3.59714287899365      1.32155439209010      0.00196209575088
  C   2.33849575341906      0.71398962172479      0.00065922225074
  C   2.16020492384158     -0.74275129502602      0.00378055241490
  N   3.19596490013396     -1.58838493553840      0.00840947108332
  C   0.78574116539579     -1.01788745401629      0.00122781770327
  C   0.07059036355972     -2.23526301647237      0.00172173057497
  C   -1.30209536190374     -2.23737529504942     -0.00220698183024
  C   -2.00278418665977     -1.01107981215794     -0.00591126145708
  C   -1.26716393479538      0.28162667489666     -0.01023038943309
  C   0.11067103895360      0.24644474083698     -0.00374977462994
  C   1.08942038740254      1.29004961967061     -0.00428663047283
  N   -2.11125648959655      1.33696763595161     -0.01261878644275
  C   -3.33750328112505      0.78209441910270     -0.01068269648174
  N   -4.43444940973219      1.55751307513994     -0.03959736806248
  C   -3.33057174171405     -0.65735638917162     -0.00798244698133
  H   4.13936182887246     -1.24245063335024      0.00584611128491
  H   3.06303558674825     -2.58195314596772      0.00663569989945
  H   0.59980869976842     -3.18112296811460      0.00512061592280
  H   -1.84608807868413     -3.17224964891322     -0.00112475987700
  H   0.87787543702356      2.34617617491473     -0.00795610518044
  H   -5.34184426551795      1.16824454036939      0.13236038472551
  H   -4.31508175910434      2.54766291650768      0.08231205019970
  H   -4.19429060474920     -1.30279099157234     -0.01276443609830
