19
Coordinates from ORCA-job ./opt_b97-3c_parallel
  C   3.00510818648565     -0.91309281063669     -0.00106497035100
  C   2.85675599463624      0.43183437117473     -0.00077121158349
  C   1.42400091581721      0.70869657293515     -0.00065663166270
  C   0.74519738897832      1.88357856768284     -0.00038490164330
  C   -0.69354581457593      1.88895809361624     -0.00033380847352
  C   -1.37404347210729      0.71616362463605     -0.00054286378958
  C   -0.70287366004949     -0.56599430812145     -0.00081573588727
  C   0.72584277023368     -0.58321929539839     -0.00088822438604
  C   1.68830758847552     -1.55225420036188     -0.00112382393351
  C   -1.71191671515972     -1.49130317885293     -0.00094545189527
  N   -2.99702023600017     -0.89253439493688     -0.00077637733943
  C   -2.80226272771911      0.39214411070328     -0.00057571373566
  H   3.94008713836634     -1.45218378616286     -0.00122305060343
  H   3.63402287406507      1.17839743641078     -0.00065115343602
  H   1.27292071815848      2.82872789633430     -0.00021221940685
  H   -1.21549471006528      2.83786556224459     -0.00013059045115
  H   1.52660949989954     -2.61956167456411     -0.00132845861850
  H   -1.63975233264474     -2.56774649487400     -0.00114975201427
  H   -3.62134005049429      1.09822072037125     -0.00041729128902
