28
Coordinates from ORCA-job ./opt_b97-3c_parallel
  N   -5.39612388931607     -0.98139647805427     -0.00389775452476
  C   -4.28505070695001     -0.62441883470059      0.00707979304867
  C   -2.96151108046714     -0.20043750556012      0.01998323902245
  C   -2.50406394903737      1.14465244626962      0.01804599791981
  N   -3.30449822559156      2.20955528369075      0.02036264227358
  C   -1.07110646499265      1.15127621727985      0.00956019764602
  C   -0.16524855412906      2.20458937928774     -0.00524101926326
  C   1.20007344581024      1.93927546612032     -0.02044960064269
  C   1.65883659702758      0.62834949413556     -0.01471664436837
  C   0.72157576209663     -0.51539634831078      0.01159364803137
  C   -0.63573570427853     -0.20619593989278      0.01047836393509
  C   -1.80964188898630     -1.02994932757838      0.00357710127077
  N   -1.83713483774288     -2.36084839121824     -0.00752259731494
  C   1.47768096980403     -1.69135210532513      0.03287194203902
  C   2.83803610993097     -1.33043290829155      0.01703836936148
  N   3.89673442202808     -2.16903899400509     -0.00773333007011
  C   2.95982169764539      0.09620199024268     -0.01637225248269
  C   4.17301886536015      0.77920331378990     -0.01254215852605
  N   5.21301304349156      1.30764537609181     -0.00383608522951
  H   -2.93378026561591      3.14085666322474      0.00997986043020
  H   -4.30355468678418      2.10340566656590      0.02160182697678
  H   -0.50165179529889      3.23417567317741     -0.00770803400613
  H   1.91114718261297      2.75395445630676     -0.03512634118392
  H   -2.71050338342838     -2.85421268576995     -0.07392693774736
  H   -0.99269381315272     -2.88825022658966     -0.12025265336971
  H   1.12910025210447     -2.71171289276618      0.07337822823302
  H   4.81296253370121     -1.78849869320549      0.15633260485096
  H   3.76999126405834     -3.13184849311477      0.24360217229024
