25
Coordinates from ORCA-job ./opt_b97-3c_parallel
  N   1.45870783944941      0.21736249916420     -0.01788833743863
  C   0.29296996400087      0.17531263909796     -0.03834810556978
  C   -1.09712584406201      0.13622843115759     -0.04638696553004
  C   -1.95623414391094      0.74721779509016      0.91691245970244
  N   -1.51869690121413      1.44571922908772      1.96356527142804
  C   -3.32265705709818      0.48517626589418      0.57031232840866
  C   -4.53274859269653      0.84051439794413      1.16415985418494
  C   -5.74212371088206      0.43533450328300      0.60111224443381
  C   -5.73476309008179     -0.33181316222634     -0.56476167716768
  C   -4.47032543670614     -0.71114470882881     -1.19891089555239
  C   -3.29515778097701     -0.29400318986736     -0.61715422246035
  C   -1.93077446868263     -0.50898307343330     -0.99413969274087
  N   -1.57514398368585     -1.20495357246662     -2.06358752896171
  N   -4.72040990530243     -1.44007158472159     -2.30344552345812
  C   -6.08345556685205     -1.48172407192092     -2.30700974858611
  N   -6.76059045791734     -2.16405152767258     -3.25151429258824
  N   -6.73891229430858     -0.84226130069331     -1.30238726616486
  H   -0.53480560732025      1.57191529264995      2.12400255324720
  H   -2.15595652399844      1.85607595198032      2.61950567815632
  H   -4.55380976436436      1.43471522419750      2.07000899692293
  H   -6.68033006867024      0.71043697158669      1.06193748316194
  H   -2.30300851266148     -1.60787380766140     -2.63725583629977
  H   -0.61110818912513     -1.34995887290474     -2.30683546348654
  H   -7.74528908524315     -1.98559555078682     -3.32784573619891
  H   -6.26722081768950     -2.42157477794968     -4.08629557744228
