24
Coordinates from ORCA-job ./opt_b97-3c_parallel
  N   -5.46119470108689     -1.18399954378622      0.00175241647151
  C   -4.32442593202628     -0.93637663471206      0.00161538206757
  C   -2.98560804971697     -0.52858540567030      0.00150017071523
  C   -2.59234472319330      0.87748889827464      0.00171286554685
  N   -3.47516034948221      1.87393698536854      0.00203142499396
  C   -1.18209645789107      0.93320993528677      0.00150663029777
  C   -0.28166741758441      2.00660504751984      0.00156617094216
  N   1.03597160212818      1.86373480088797      0.00132584799931
  C   1.49295024366856      0.59875782806917      0.00101319863376
  C   0.64759901436849     -0.62538770311705      0.00091613112204
  C   -0.71258401256615     -0.42273110145894      0.00117612367930
  C   -1.84067263961869     -1.29652832949303      0.00118796825069
  N   1.38662818239731     -1.75533396775404      0.00058468637269
  C   2.65892270736505     -1.32992350097208      0.00045942872692
  N   3.68765258425361     -2.17316815007159      0.00012047027028
  C   2.79544861460804      0.12073342434598      0.00071631126380
  C   4.01459959057391      0.79492421889019      0.00064867077203
  N   5.07647818364162      1.27277945192459      0.00066323089871
  H   -4.46277592855240      1.68334110932397      0.00216857906900
  H   -3.18737125357965      2.83495604996729      0.00220128875649
  H   -0.64030645981692      3.03228452988740      0.00181378649014
  H   -1.80322175243864     -2.37300437721011      0.00097693544710
  H   4.63436423143888     -1.83797859733580      0.00009588355532
  H   3.51552465020998     -3.16274092906514      0.00001315955739
