28
Coordinates from ORCA-job ./opt_b97-3c_parallel
  N   5.48057942198301     -0.76635206723799     -0.00665326998287
  C   4.36889736437105     -0.41693384580779     -0.00457957066375
  C   3.04284608534209      0.00957465518194     -0.00211413876871
  C   2.60437283102908      1.35907439261268     -0.00284434790888
  N   3.41518102679517      2.41246812144159     -0.00592290375443
  C   1.17328000668363      1.37933561922625      0.00021573554743
  C   0.27334209046799      2.43269712491278      0.00079707149658
  N   -1.04978377914539      2.25822346970266      0.00353597797997
  C   -1.49691343284824      1.00365121480135      0.00573880353350
  C   -0.64148464599892     -0.20388477392294      0.00543186778244
  C   0.71716599118867      0.02476741860723      0.00271676358755
  C   1.89832446244062     -0.82468794451610      0.00136908561000
  N   1.93685790519980     -2.14569519379240      0.00300068185476
  C   -1.50146168729923     -1.32928530846621      0.00799780453786
  C   -1.14580980942344     -2.67101452647520      0.00815326920248
  N   -0.81535052924737     -3.79203409271594      0.00823247188217
  C   -2.84174463077254     -0.84756850549677      0.00964931426941
  N   -3.94023133282281     -1.60579482573395      0.01192032055676
  C   -2.83688104461958      0.57676570444978      0.00838501852586
  C   -4.00135643744946      1.34582502806771      0.00923908021773
  N   -5.02206711327207      1.90552374841001      0.01009781387812
  H   3.05768536696230      3.34942111820141     -0.00667226368231
  H   4.41354989541405      2.29451176294198     -0.00823256807492
  H   0.60978889697574      3.46485802621825     -0.00110833070911
  H   2.82251818975039     -2.62423222885385      0.00167936500172
  H   1.10230574323365     -2.71538893235866      0.00533783190944
  H   -3.88246653765602     -2.60769325700813      0.01230728422977
  H   -4.85112381128211     -1.18214449748971      0.01258690324143
