24
Coordinates from ORCA-job ./opt_b97-3c_parallel
  N   4.15595792067707     -1.59806020202688     -0.00022430931012
  C   2.99526188801425     -1.54306944315760      0.00024934673313
  C   1.59500435052132     -1.48714005047701      0.00030456500953
  C   0.73821761057162     -2.56054264686519     -0.00013753996722
  C   -0.63456011991442     -2.10528519205829     -0.00001359902107
  C   -1.76641972055131     -2.92576945414959     -0.00038849639314
  N   -2.72472717798241     -3.58532622703146     -0.00063780874198
  C   -0.63486357773981     -0.71963760882886      0.00054349773568
  C   0.77488024055512     -0.28892882834473      0.00078008462116
  C   1.11042553122676      1.03432622748194      0.00135529936707
  C   2.44425155578058      1.49732302924470      0.00164541924767
  N   3.48152128507405      2.01997931569201      0.00198841386602
  C   0.05500719449904      2.06497538802971      0.00172396170740
  N   0.44232149183793      3.34306682583344      0.00227291875482
  C   -1.26894767985152      1.64900707801434      0.00148038975609
  C   -1.62830025198707      0.26818044764734      0.00089943388501
  C   -3.03233947466691      0.25296608197791      0.00082429567149
  N   -3.55411966758346      1.51707014634586      0.00132102303875
  C   -2.51934550036873      2.35068993769586      0.00170459342809
  H   1.03588295659340     -3.59620447728867     -0.00054259132405
  H   -0.22876190470181      4.08865925858649      0.00254742111849
  H   1.41697974758538      3.59448184353455      0.00243798681043
  H   -3.68029826436505     -0.60911550669277      0.00044205617942
  H   -2.68025766282402      3.42017351193689      0.00213574632734
