24
Coordinates from ORCA-job ./opt_b97-3c_parallel
  N   4.40139450523351     -2.04697218170505      0.00049746562459
  C   3.50669091199510     -1.30274406922078      0.00045800934355
  C   2.41460565825335     -0.42749993413707      0.00031910221711
  C   2.48938062933078      1.00354769021851      0.00097586730886
  C   1.21559931230489      1.53891193489287      0.00053420201885
  C   0.86224711745857      2.89305214023492      0.00087732236090
  N   0.51976003733853      4.00537331568359      0.00122073324643
  C   0.28388766466551      0.43230997769806     -0.00040330481493
  C   1.06449978350067     -0.80115711796541     -0.00052305566259
  C   0.43314094295605     -2.05740559757925     -0.00138369932640
  C   -0.93841841190095     -2.12775804682063     -0.00211995506245
  C   -1.69817984534286     -0.93776938278049     -0.00200280356271
  C   -1.07737458232296      0.34235194329687     -0.00114466177592
  C   -2.13455691913685      1.36991615552601     -0.00126302177150
  C   -3.32860313582894      0.74965784754690     -0.00213844000161
  C   -3.08588583203103     -0.69981741534744     -0.00261726024331
  N   -4.06623331803592     -1.59671103154034     -0.00348341554187
  H   3.40667204384413      1.56897655596773      0.00167993471034
  H   1.03297363731161     -2.95662622254957     -0.00146024207072
  H   -1.42222297999387     -3.09680703045836     -0.00278050186112
  H   -1.95684456792067      2.43271317981805     -0.00072712985436
  H   -4.30587734934366      1.20578056198494     -0.00244953954925
  H   -5.03050793693876     -1.31739949602076     -0.00389989001949
  H   -3.87460719489620     -2.58291663584330     -0.00381615751241
