24
Coordinates from ORCA-job ./opt_b97-3c_parallel
  N   -4.55963155700405      0.08276789504402      0.00012598577949
  C   -3.46564535106515     -0.31394268437098      0.00006359042973
  C   -2.18059243445226     -0.86671169496974     -0.00012706246645
  C   -1.93195136727534     -2.30669910116244      0.00024776039094
  C   -0.59491440651450     -2.54389885655541     -0.00007799500029
  C   0.07130603555885     -1.26608128838971     -0.00066133985996
  C   -0.95416620670954     -0.21755798105785     -0.00067863283725
  C   -0.56975022831261      1.15548486183650     -0.00118107023281
  C   -1.52742119198051      2.19823273708252     -0.00114465306359
  N   -2.27411532833375      3.08702942089331     -0.00105775300484
  C   0.77244219957389      1.48969227068296     -0.00163138708861
  C   1.74768614503239      0.47871694626255     -0.00158055001041
  C   1.38389857586473     -0.90315613354873     -0.00109477571475
  C   2.61554892167566     -1.69804328014435     -0.00113330977621
  C   3.66633272849595     -0.85295833684664     -0.00159297246232
  C   3.15070528777609      0.52053499563832     -0.00187848933747
  N   3.94096523034410      1.59465182479002     -0.00236187124396
  H   -2.72063046404445     -3.04197085871166      0.00070826440339
  H   -0.11001422395365     -3.50584379911982      0.00007338623553
  H   1.04491183490830      2.53628306140769     -0.00198877021491
  H   2.65818227499353     -2.77505182575382     -0.00082425740436
  H   4.71395215750536     -1.11082103764566     -0.00173397848027
  H   4.94051231494800      1.50866463930081     -0.00239703287218
  H   3.56159780396896      2.52438779463807     -0.00244313876844
