25
Coordinates from ORCA-job ./opt_b97-3c_parallel
  N   5.14076261444371     -0.34179293766132     -0.00004659849918
  C   4.01062223647295     -0.61837290239016     -0.00016368632643
  C   2.67337358514982     -1.02833228105968     -0.00031290286727
  C   2.26830420187222     -2.43315099449903     -0.00034259085261
  C   0.91225016623996     -2.52453357944436     -0.00050180571281
  C   0.39157924572252     -1.18530891094509     -0.00058773044316
  C   1.52518940163296     -0.25154758195290     -0.00044113374063
  C   1.29054996006370      1.15389442573627     -0.00048198687688
  C   2.35886031698999      2.08396781664376     -0.00038434715370
  N   3.20184386710295      2.88138356506839     -0.00035742002727
  C   -0.00548485683336      1.63518269965128     -0.00065235334702
  C   -1.08794897254732      0.73771428536976     -0.00080070677036
  C   -0.87679908993342     -0.67760942094828     -0.00076148457228
  C   -2.16829846608682     -1.33936410553521     -0.00093104016627
  C   -3.13638126106135     -0.38261852643819     -0.00108617793927
  C   -4.52915724271580     -0.52820021973152     -0.00130524503568
  N   -5.69156015578678     -0.55600391236910     -0.00146662672100
  C   -2.47224572065310      0.94200202494787     -0.00099709075883
  N   -3.16402831705691      2.07599651336729     -0.00110569322683
  H   2.97170186504844     -3.25028395983546     -0.00025755582707
  H   0.32730162071152     -3.42887136009213     -0.00057093406344
  H   -0.16175047200574      2.70482117641944     -0.00069354610821
  H   -2.33388008531291     -2.40372926361852     -0.00095529986613
  H   -4.17017662830752      2.06847977708219     -0.00124180570712
  H   -2.70794552454964      2.97068120493479     -0.00104386629049
