23
Coordinates from ORCA-job ./opt_b97-3c_parallel
  N   4.38500513633783     -1.15607708715212      0.00049918942907
  C   3.47715291871506     -0.42644001709686      0.00025562095351
  C   2.34809545246843      0.39440412537792     -0.00029783564086
  C   2.27904601079424      1.76483443890529     -0.00083162381436
  C   0.90299771601164      2.19332208789518     -0.00132163584016
  C   0.08798318122142      1.08932567839830     -0.00109000005316
  C   0.96519246357939     -0.09093301902110     -0.00042082307311
  C   0.47648598939006     -1.34241291062561     -0.00002760869790
  C   -0.96385820901801     -1.56959051737270     -0.00030994553205
  N   -1.37000682454610     -2.85630978840606      0.00032109002932
  C   -1.81876591720854     -0.48513887261503     -0.00093047562320
  C   -1.31258219936445      0.86091770325157     -0.00131993772183
  C   -2.41167325045088      1.71226462473321     -0.00196466692150
  C   -3.60576239594053      0.92618538363922     -0.00196719742927
  C   -3.26142843453549     -0.40131995306768     -0.00135104910521
  H   3.13139417251465      2.42606774257153     -0.00088566815567
  H   0.58726608267794      3.22449209406438     -0.00178702841468
  H   1.14229803105413     -2.19769465542982      0.00052103203228
  H   -2.34327555060268     -3.09556490492940     -0.00085227132378
  H   -0.70944030640580     -3.60990597092679     -0.00063006991572
  H   -2.37621273350624      2.79116212989086     -0.00241906510475
  H   -4.60941448205225      1.32075615070202     -0.00238113207199
  H   -3.95366591383384     -1.23002215618632     -0.00116185880495
