23
Coordinates from ORCA-job ./opt_b97-3c_parallel
  N   4.58972183126211     -0.04471315691847      0.00123980167862
  C   3.49233681423389      0.34218082692396      0.00115020720569
  C   2.20098418921137      0.87987547248517      0.00084628837026
  C   1.93246427805544      2.31260381115532      0.00147949545071
  C   0.58868117453402      2.53822500689587      0.00089810324244
  C   -0.05844331520265      1.26087519828386     -0.00014128887972
  C   0.98118785614826      0.21776459273855     -0.00012405186433
  C   0.60995796737115     -1.15615305196246     -0.00103234818024
  C   1.58240485509411     -2.18676450920921     -0.00100393374393
  N   2.33957504312095     -3.06609206583508     -0.00105665747792
  C   -0.72826085635354     -1.51546573704755     -0.00199009495689
  C   -1.71254961141214     -0.51487652293559     -0.00205576777577
  C   -1.36657253043831      0.86352418910320     -0.00110525889948
  C   -2.63732537692495      1.58318168312336     -0.00148861193790
  N   -3.66245310950196      0.78259969418679     -0.00258394039439
  C   -3.11739219345720     -0.52352099953643     -0.00295495573806
  N   -3.97295956192830     -1.53405900484291     -0.00406569538413
  H   2.71104085552938      3.05881046432700      0.00227329494782
  H   0.09631222584106      3.49616633412510      0.00113707192667
  H   -0.98588643449214     -2.56522071044825     -0.00269041572593
  H   -2.76764642976328      2.65642271160907     -0.00098671563808
  H   -3.66992536970508     -2.49108861470823     -0.00442961422486
  H   -4.95926269592220     -1.33798983221311     -0.00461566370058
