25
Coordinates from ORCA-job ./opt_b97-3c_parallel
  N   4.83384962199798     -1.07134991373567      0.17871287817899
  C   3.85056687870704     -0.45189593371600      0.11656212270673
  C   2.67890199909220      0.30883038242346      0.04112703098627
  C   2.60673206119433      1.73661956101563      0.01270763814810
  C   1.29278109401126      2.16658898728671     -0.06872183450780
  C   0.47271875725603      1.01948564712264     -0.09646525538824
  C   1.36711923092277     -0.17471170253771     -0.02865567164173
  N   0.94361108338882     -1.44418494746421     -0.05274735276920
  C   -0.36199183124457     -1.67264240912039     -0.11087902428113
  N   -0.79348289558039     -3.00325554865603     -0.13304744773889
  C   -1.29615052384172     -0.62476312664010     -0.10595343760965
  C   -0.86766689709105      0.72260053177425     -0.12522563180915
  C   -2.10947401472910      1.49273854669638     -0.03469353829266
  N   -2.19332936270159      2.81703979312936     -0.04813377178507
  N   -3.18969567627478      0.71484292506974      0.07941320107849
  C   -2.70775542906247     -0.56236377262078      0.06843051135015
  N   -3.53000320661587     -1.59724792276358      0.23178625298561
  H   3.47423248888815      2.37734553144554      0.05029852687220
  H   0.98363254188759      3.19946858374158     -0.10757348660875
  H   -1.37333063223150     -3.21433462446315     -0.93420987384923
  H   0.00808526760351     -3.62003914070089     -0.12589077474120
  H   -3.08863943447591      3.26139038530871      0.05712618521530
  H   -1.37012001980697      3.38682886212123     -0.09664781144379
  H   -4.47643235341316     -1.41062314093878      0.51706936113893
  H   -3.12945884118058     -2.49445450077788      0.45784439900571
