27
Coordinates from ORCA-job ./opt_b97-3c_parallel
  N   5.41606833201853     -0.60561512113224     -0.24644015691864
  C   4.37269508058750     -0.09720498976266     -0.16575215290441
  C   3.12577684686687      0.53013579693262     -0.06796866018828
  C   2.89728101284295      1.94120655288777     -0.02253314422433
  C   1.54584571498802      2.22319797967971      0.08108422952742
  C   0.85549096487802      0.99264510671033      0.10606526500151
  C   1.87756814116155     -0.09452173253288      0.01415498296037
  N   1.59771321988353     -1.40174371444532      0.03608520979927
  C   0.32594584348144     -1.76994004107240      0.11258879164849
  N   0.04550596394871     -3.14095455949261      0.14612224195581
  C   -0.72376497671800     -0.83594556437404      0.11962394455420
  C   -0.44656953897638      0.55814230099348      0.14570931874925
  C   -1.72685478983622      1.25130776057560      0.08294265592661
  N   -1.88389212124790      2.56904744479014      0.10509700750067
  C   -2.75004322931646      0.29478294840180     -0.02126557636594
  C   -4.11242916005958      0.54836008049617     -0.15180914061763
  N   -5.25342235422162      0.75941616957883     -0.26440669385195
  C   -2.12432049119746     -0.99671803895566     -0.03713378415533
  N   -2.76946834903006     -2.14972189278951     -0.19765985042887
  H   3.68800722106502      2.67421372869276     -0.06381277020616
  H   1.13210450903819      3.21773098789631      0.13748923358845
  H   0.91059948508693     -3.66373218580342      0.10518332154746
  H   -0.47085015936422     -3.41447633541916      0.97204603927300
  H   -2.79536442805840      2.98409453551370      0.01554467952592
  H   -1.09047724977956      3.18082586580650      0.14227021905350
  H   -2.22526064367577     -2.97226729639669     -0.41458913923206
  H   -3.74188564206621     -2.14717621067957     -0.45741054401870
