24
Coordinates from ORCA-job ./opt_b97-3c_parallel
  N   -4.76556268875103     -0.51072521217780     -0.00192687611088
  C   -3.62162882361040     -0.71803395784819     -0.00164510302192
  C   -2.25320253834971     -1.01781119635674     -0.00118078562225
  C   -1.69924869490218     -2.32960360920251     -0.00169981536009
  N   -0.35895446187522     -2.35204252497532     -0.00090251167007
  C   0.00062914612792     -1.04110129850593      0.00012658555151
  C   -1.14881085541304     -0.14646302463545     -0.00001134715912
  C   -0.94482207364349      1.25027127052850      0.00097483644509
  C   -2.02906542893258      2.16220300471439      0.00081531213209
  N   -2.88511114183601      2.94579475318203      0.00056778065157
  C   0.35903247654441      1.77336845930899      0.00214787773935
  C   1.44106663979425      0.90271521786837      0.00231808587846
  C   1.25325743542332     -0.48732879271224      0.00130339583158
  C   2.58513119564518     -1.06577945279798      0.00190392427682
  N   2.80010696253170     -2.36348269420677      0.00127849852302
  N   3.54993522022991     -0.12907993517461      0.00317215723407
  C   2.88581964249547      1.05309525592550      0.00342911017676
  N   3.55675507956627      2.19295271454595      0.00462239380199
  H   -2.27394092863505     -3.24393608912849     -0.00260121108616
  H   0.48192504876299      2.84733233157108      0.00290661823347
  H   3.73519457127945     -2.73450658117223      0.00175193425877
  H   1.99943132615725     -2.98338928414762      0.00033792830169
  H   4.56221670720079      2.17612441132709      0.00531588816488
  H   3.08906457798983      3.08053628156997      0.00481071982938
