23
Coordinates from ORCA-job ./opt_b97-3c_parallel
  N   4.94632176767354     -0.90072209237651     -0.00172237448825
  C   3.90485085921248     -0.38080879963985     -0.00087008692818
  C   2.64472064812407      0.22571877751239     -0.00001418427717
  C   2.36097071627313      1.61461759779575      0.00067004982730
  N   1.04551043855345      1.89898739310553      0.00140110656561
  C   0.43680533492475      0.68459460062966      0.00120980330696
  C   1.38483180822186     -0.41716376982429      0.00033164247752
  C   0.93715562329200     -1.73990725127540      0.00002509369046
  C   -0.42723487343898     -2.01934480387688      0.00055837504304
  C   -1.33873791713446     -0.96044030353121      0.00139758560659
  C   -0.90082062795298      0.37067105175750      0.00170731325621
  C   -2.10148244600031      1.18212822386731      0.00259223579893
  N   -2.07363994883371      2.49853809288780      0.00308988372175
  N   -3.22569087352789      0.44127775302608      0.00283618749636
  C   -2.78538737450478     -0.84188769212052      0.00212842225345
  N   -3.65558606247249     -1.84064265613293      0.00214607841140
  H   3.09944560283353      2.40283289690179      0.00063314297523
  H   1.65113973596836     -2.55252221811788     -0.00062824087649
  H   -0.75605442054994     -3.05085363434402      0.00031103297542
  H   -1.17208095561353      2.95900259623219      0.00284924293830
  H   -2.92393013048909      3.03560080578307      0.00371116331096
  H   -4.64046326065609     -1.63931251661334      0.00271673395427
  H   -3.35700096050319     -2.79799324444628      0.00166447236041
