20
Coordinates from ORCA-job ./opt_b97-3c_parallel
  N   -4.66943259147022      1.15863738232722      0.00402952258419
  C   -3.66058205933636      0.58010150635296      0.00206143313238
  C   -2.46764663991454     -0.14815844411869     -0.00036458896537
  C   -2.35131607482175     -1.58966866685581     -0.00384680295975
  N   -1.10526347316064     -2.03889632599582     -0.00563213261095
  C   -0.33509617282806     -0.90547365978230     -0.00339337177120
  C   -1.15834387982831      0.32188243531119     -0.00001307337704
  N   -0.67433013162403      1.58161685527043      0.00269918813911
  C   0.63959892324416      1.70959109360792      0.00226670133216
  C   1.51823394951184      0.60833742410026     -0.00081965240799
  C   1.01640909623790     -0.72212672581563     -0.00367025835758
  C   2.18875326533558     -1.58668911527466     -0.00635285449439
  N   3.30159537837384     -0.90832742918829     -0.00536280542344
  C   2.91800323769969      0.44977312446750     -0.00195245128552
  N   3.88591037745252      1.35065780754116     -0.00038383355120
  H   -3.19036510730277     -2.27115648724194     -0.00497439994002
  H   1.01887827035854      2.72732075695516      0.00444940712727
  H   2.18415111323752     -2.66685173262558     -0.00890019712705
  H   4.84193270222667      1.03751825843593     -0.00164084607824
  H   3.69941520620847      2.33714782142897      0.00204162953471
