28
Coordinates from ORCA-job ./opt_b97-3c_parallel
  N   5.85411825465990      0.43724337330204      0.00296548079997
  C   4.72043652667204      0.17312607285057      0.00284119168789
  C   3.34300236662109     -0.06443755538282      0.00253666614417
  C   2.66987491919961     -1.30134853438246      0.00177982711137
  C   1.28278403454682     -1.08857539961908      0.00137537687935
  C   0.18511333075120     -1.97666818865276      0.00025687374663
  N   0.34756957750097     -3.31193193824458     -0.00025136254991
  C   -1.14280051201345     -1.43559326558314     -0.00042721279241
  C   -2.21746405239543     -2.34404055592524     -0.00197532042164
  N   -3.03378697474941     -3.17276286682465     -0.00340588348886
  C   -1.33874653641796     -0.05144235950656      0.00013106671598
  C   -0.18407979012144      0.86807180596303      0.00133028643075
  C   1.07448557813979      0.32820403431758      0.00191560248561
  C   2.35533205925842      0.96458189206424      0.00260848048323
  N   2.54340011241190      2.27892667036227      0.00313286905869
  N   -0.55640036010824      2.16601531231748      0.00159596395081
  C   -1.90739089576265      2.13047192045689      0.00062609304521
  N   -2.64151054606069      3.23849259577720      0.00054900013753
  C   -2.45064966435332      0.79046601170162     -0.00029248258260
  C   -3.81847840164100      0.52091965118750     -0.00146304940170
  N   -4.97773124293026      0.40895651830545     -0.00245536325256
  H   3.18436174214534     -2.25001736963253      0.00149262756636
  H   1.25795635304278     -3.72807905100744      0.00011134056306
  H   -0.44795144119085     -3.92628881186168     -0.00127166247764
  H   3.46709449254769      2.67554091780911      0.00341114495409
  H   1.73743351932165      2.88598597224475      0.00293740898531
  H   -2.19337553782186      4.13660985068610      0.00116160929442
  H   -3.64517491345231      3.19119784267716     -0.00023775487307
