24
Coordinates from ORCA-job ./opt_b97-3c_parallel
  N   5.55663346415325     -0.79679874019314     -0.00007154803604
  C   4.42226456611960     -0.54397649128910     -0.00032609388529
  C   3.04848443074372     -0.24969409242598     -0.00053982459208
  C   2.48710063849106      1.01469722800209     -0.00061037640004
  C   1.06541954701421      0.85678673583723     -0.00083247393249
  C   0.04463877545605      1.79463745807909     -0.00097921634467
  N   0.24367105759894      3.12423045938293     -0.00091692955154
  C   -1.33898335343857      1.33945572795422     -0.00119910931524
  C   -1.62028974461312      0.02584357760943     -0.00126923438023
  C   -0.57118152264186     -1.00171831940961     -0.00112457376025
  C   0.78013324550595     -0.55737679202796     -0.00089755513403
  C   1.98871113109337     -1.22654381457253     -0.00071873745439
  C   -1.20078678735695     -2.21716280959398     -0.00124985554109
  C   -2.63182199636383     -2.01047812094248     -0.00147440111729
  C   -2.91189918392413     -0.67038494297975     -0.00147061466222
  C   -4.15388664947651     -0.03103644635629     -0.00164858221911
  N   -5.15983010038189      0.55454574348537     -0.00154879644303
  H   3.04737507998679      1.93589197103484     -0.00050808682495
  H   1.16719594034046      3.51528242586848     -0.00079986516862
  H   -0.52682704605213      3.76600487533872     -0.00107809405550
  H   -2.13319510135839      2.07677986028421     -0.00129992849740
  H   2.14188192099743     -2.29338978531890     -0.00071034643626
  H   -0.72766139077252     -3.18615880087208     -0.00118964867505
  H   -3.36859692772095     -2.79800950319478     -0.00161816427313
