29
Coordinates from ORCA-job ./opt_b97-3c_parallel
  N   -5.60301060976971     -0.66071789678724     -0.01572912525910
  C   -4.51662362591302     -0.24169640781646     -0.01673823104267
  C   -3.18367621089307      0.17615688155911     -0.01557803512005
  C   -2.67856577338324      1.47386844617388     -0.02603464328142
  C   -1.27239595305473      1.43209285918722     -0.01974918088123
  C   -0.33256226331028      2.47845483096191     -0.02680965823935
  N   -0.70498312390638      3.78594470510666     -0.07622730272261
  C   1.04169257752829      2.15547998357401     -0.03036437484207
  C   1.45234846110717      0.84796817624210     -0.01664022088571
  C   0.48742609532170     -0.27261383191112     -0.00360397500778
  C   -0.86291413542235      0.05218187059658     -0.00894879281823
  C   -2.06867648863190     -0.73199043436206     -0.00326548922835
  N   -2.21183275222818     -2.05100073920561      0.01030490961498
  C   1.24122121166189     -1.46278676071747      0.00830423005485
  C   0.80719057733715     -2.78179857104252      0.02337616006688
  N   0.46325797185850     -3.89836068006319      0.03639886353985
  C   2.63497544996800     -1.10521455187368      0.00470062888087
  N   3.63933749681800     -1.98208761376955      0.01504831789555
  C   2.75983920011350      0.29920218633249     -0.00965361268083
  C   3.97118326543934      0.98737071079919     -0.01389869666909
  N   4.99970406175970      1.53571642617682     -0.01597040524750
  H   -3.30209561464127      2.35429792748560     -0.04599534663279
  H   -0.01580643438337      4.48531973423165      0.13285425287799
  H   -1.64747128404811      4.03946391632817      0.15488042432258
  H   1.77815774990750      2.94875459421343     -0.04362728752612
  H   -3.13597344378998     -2.45032124216938      0.01175605658076
  H   -1.43169651423738     -2.68937571786874      0.01820390185222
  H   4.59329798421086     -1.66745924323312      0.00895167362049
  H   3.46600507548138     -2.97111075154870      0.02135859177788
