25
Coordinates from ORCA-job ./opt_b97-3c_parallel
  N   4.81789007909963     -0.54656238631549     -0.00734656562892
  C   3.69649993848138     -0.23340302576310      0.02210904656765
  C   2.32920569708916      0.05419604290444      0.04737740534240
  C   1.70879100506787      1.28558443223792      0.06088120070956
  C   0.29376902582442      1.07923063633736      0.05756029243908
  C   -0.75407873960385      1.99648116208361      0.03154310948004
  N   -0.56703559109386      3.34648978646073      0.08197881742371
  C   -2.10077537811030      1.50615556848822     -0.00066900896117
  C   -2.36921180464883      0.17325553205385     -0.00719515989363
  C   -1.27708261054216     -0.83243911267971      0.03413834146824
  C   0.04427307556769     -0.33262608358207      0.04989508465180
  C   1.28834402648719     -0.96898453563012      0.02921639815821
  N   1.54343483723156     -2.29167406234095      0.01834154932476
  C   -1.87594039547501     -2.06646373032816      0.05239137356879
  C   -3.31222941700585     -1.87290174196665      0.01495329040246
  C   -3.61553790044984     -0.54242106919694     -0.02374501464580
  H   2.23301180580667      2.22803880070491      0.07205789279242
  H   0.34703831189099      3.71584050261184     -0.10578575076551
  H   -1.32421520996154      3.93942399858126     -0.20667541678942
  H   -2.91093582976574      2.22681463898632     -0.01262652968790
  H   0.80727843536498     -2.92516495599622     -0.23563595428689
  H   2.48085234444392     -2.60362485226181     -0.17085405831765
  H   -1.40256208354213     -3.03348900371128      0.12487955052136
  H   -4.03044107335312     -2.68002267372433      0.02219909211312
  H   -4.59612642170319     -0.09646062875352     -0.04845133898661
