24
Coordinates from ORCA-job ./opt_b97-3c_parallel
  N   -4.50464866752298      1.47282506820741     -0.00549551087457
  C   -3.42177250406445      1.04578954181197     -0.00506501060159
  C   -2.17314768731106      0.42288024210107     -0.00443764777423
  C   -2.01409062969739     -0.99795976120411     -0.00615513725950
  N   -3.01891701246286     -1.87064030494955     -0.00847951779566
  C   -0.62681055642634     -1.32600324719966     -0.00510142138063
  C   -0.09185347317912     -2.60814913815612     -0.00647883521706
  N   0.40639415865988     -3.66443455670181     -0.00758845729701
  C   0.09243658579796     -0.11379160751121     -0.00275868663936
  C   -0.89322347400327      0.99884149970813     -0.00256330574540
  N   -0.58384547844713      2.29526104459444     -0.00091209185348
  C   0.71340637208447      2.61244225756820      0.00069496670269
  C   1.72307948992057      1.65618614317133      0.00083101336640
  C   1.41454871235694      0.26565559523718     -0.00084336193150
  C   2.71233502980351     -0.38472514220299      0.00003541023160
  N   2.98654479628680     -1.67438396630865     -0.00061104164848
  N   3.72929469533285      0.52986513228782      0.00181919638965
  C   3.14045914873497      1.72629752645736      0.00228716437796
  H   -2.85067061064448     -2.86060116540628     -0.00959485097424
  H   -3.97207070732420     -1.55060331431261     -0.00903694040459
  H   0.94792685433544      3.67086763807545      0.00195931160514
  H   2.27032311761605     -2.38696238840286     -0.00179569387263
  H   3.95311043336126     -1.95678191623649      0.00022888907093
  H   3.74115034519257      2.62524991747196      0.00370927692555
