24
Coordinates from ORCA-job ./opt_b97-3c_parallel
  N   1.46284795488752      0.03848218697763      0.08627495291789
  C   0.30268154571336      0.00613264220767      0.03281668638070
  C   -1.10187829185866     -0.01779543949723     -0.01640183639630
  C   -1.96169552343952      0.79668071072985      0.80055448020658
  C   -3.27124558790431      0.50235954601642      0.47667613366157
  C   -4.52675788178668      1.00248139882538      0.96560014169002
  N   -4.57171771179038      1.93858713090170      1.92103868286351
  N   -5.71334599521173      0.57988011316354      0.51329348407138
  C   -5.69013819589839     -0.34987956084792     -0.43614435912069
  C   -4.44888313959344     -0.96086867366444     -1.03884779382795
  C   -3.24585231335428     -0.50692628438091     -0.55403114157907
  C   -1.88791223681698     -0.81069157601149     -0.84042316186312
  N   -4.74500907283192     -1.87437976252087     -1.97724562810016
  C   -6.09229308533040     -1.89489339133460     -2.02146303665536
  N   -6.74622107024190     -2.69350017927640     -2.84857417158717
  C   -6.73617949351453     -0.97646253512826     -1.09437679782204
  C   -8.11489523256735     -0.82634994191131     -0.96470260982729
  N   -9.27669323760471     -0.76269577633867     -0.91984128824036
  H   -1.59599897643348      1.50353404010365      1.52928315250120
  H   -3.74513932061429      2.32780616642533      2.33210950053745
  H   -5.47260767312566      2.25863067337841      2.23180564349229
  H   -1.53688867629155     -1.52551002300517     -1.56455427375040
  H   -7.75116967800354     -2.70399327600257     -2.87665892291596
  H   -6.22919710638715     -3.30125818880971     -3.46048783663671
