23
Coordinates from ORCA-job ./opt_b97-3c_parallel
  N   5.09043126222006     -1.55884102055398      0.00131311830369
  C   4.00671868685862     -1.13767800217541      0.00106492670418
  C   2.69863542879788     -0.62581526525585      0.00065445119015
  C   2.35613755628293      0.74515952797880      0.00157580958416
  C   0.95816368719358      0.83881876594423      0.00070937322188
  C   0.07888890732467      1.94962476604639      0.00101757545543
  N   0.52606282608932      3.20984725757822      0.00240224042308
  N   -1.27690505570961      1.84859001226245     -0.00005218340247
  C   -1.78413414107483      0.63741679252414     -0.00143306224777
  C   -0.96254574487700     -0.64498067959021     -0.00189864627120
  C   0.42861762758444     -0.49375770526711     -0.00077783138819
  C   1.50996795617276     -1.38609705628040     -0.00078836393549
  C   -1.88071041051861     -1.65145589923421     -0.00340347279144
  C   -3.16150687324762     -0.98132766443987     -0.00379785507395
  N   -4.34242965716591     -1.59006636943479     -0.00516966664855
  N   -3.09990160322402      0.36622515385596     -0.00263183817840
  H   3.07682581378327      1.54813695381026      0.00272418952939
  H   1.50351837864367      3.43142097205090      0.00336235336965
  H   -0.15048176218212      3.95308159065782      0.00257551546865
  H   1.46096468345820     -2.46263658122203     -0.00173434754299
  H   -1.71795527886134     -2.71671989056191     -0.00416980018086
  H   -4.42364080454538     -2.58957451581789     -0.00613693619503
  H   -5.17857080130295     -1.03157580057550     -0.00538598839396
