23
Coordinates from ORCA-job ./opt_b97-3c_parallel
  N   4.87513723530777      0.44020796783825      0.00050506420358
  C   3.74339981053321      0.16643580831138      0.00012579551588
  C   2.36606286580582     -0.06940326337312     -0.00004102069263
  C   1.68834758969339     -1.28680185948216      0.00052523992310
  C   0.29566139731988     -1.04264083290749      0.00012465884547
  C   -0.81499410461601     -1.90503121128848      0.00045208256807
  N   -0.71380106045937     -3.24664030452235      0.00129574458067
  N   -2.10172031309176     -1.45280420136696     -0.00002836836532
  C   -2.29700573195857     -0.15964169433952     -0.00084212127065
  C   -1.19998614944196      0.87997086283258     -0.00128930066691
  C   0.09364934203039      0.37361586385096     -0.00075231863893
  C   1.37934166159880      0.97940545585073     -0.00085437293791
  N   1.65549698297557      2.28420362431915     -0.00159396638744
  C   -1.86658272486690      2.08413185863672     -0.00214786463747
  C   -3.25283157089369      1.74181346285943     -0.00217513102958
  N   -3.52210274466320      0.43559599097679     -0.00141538658373
  H   2.18285669394614     -2.24570364574788      0.00119186682016
  H   0.16656428021705     -3.72366087310363      0.00152917596228
  H   -1.56354445044795     -3.78160496511154      0.00132630078428
  H   0.92262527679321      2.96833900736675     -0.00185463161003
  H   2.60673427982111      2.60920108864140     -0.00137480595883
  H   -1.47378922353065      3.08852926251931     -0.00272775949486
  H   -4.06609788397228      2.45642052463969     -0.00275759792916
