22
Coordinates from ORCA-job ./opt_b97-3c_parallel
  N   -5.34665832257532     -0.93994033659768      0.00011763430833
  C   -4.18592250510795     -0.91513783610984      0.00009293184277
  C   -2.78095691426044     -0.86426792871139      0.00000511079302
  C   -1.92501335764124     -1.92872528217161     -0.00017035488521
  C   -0.57050654333916     -1.40009051953491     -0.00015645898559
  C   0.62516898066404     -2.03804652469472     -0.00025395052067
  C   1.86282371557767     -1.27909017623960     -0.00018601944644
  C   3.08894964411667     -1.98302614622699     -0.00026832943165
  N   4.06075436291243     -2.61656872172536     -0.00030408092517
  C   1.81112763372714      0.08829971310728     -0.00004290661494
  C   0.53596677860164      0.79660161109915      0.00007478023008
  C   -0.66720352772266      0.04743761024023      0.00002658096764
  C   -1.99893286756915      0.37580931139053      0.00012712272522
  C   0.87700943098871      2.12957535237080      0.00022272133913
  C   0.01540362894819      3.22674905139311      0.00036828163627
  N   -0.71470200147093      4.13306041295457      0.00021209881976
  C   2.35354756928882      2.15856053977089      0.00017399152276
  N   2.88867144019869      0.97357588316774      0.00002029597035
  H   -2.19780891332683     -2.97050499378855     -0.00028607467261
  H   0.69129359511745     -3.11685520028126     -0.00038333028927
  H   -2.42802972259294      1.36509348859061      0.00026383297073
  H   2.94938430066520      3.05987427919698      0.00025332934546
