24
Coordinates from ORCA-job ./opt_b97-3c_parallel
  N   5.76713785962932     -0.84172029640283      0.00004504333029
  C   4.65979912607244     -0.48812964549665     -0.00003883224591
  C   3.31647219088023     -0.08024522975575     -0.00030289722893
  C   2.84379519747404      1.22077482498750     -0.00065042567573
  C   1.41183097992489      1.16925402733208     -0.00083911486269
  C   0.47337968545622      2.17634712850490     -0.00120347396137
  C   -0.91146102557233      1.88860079950041     -0.00134318785257
  C   -1.33859800481935      0.58656997192709     -0.00111371135189
  C   -0.36020875237530     -0.54181923419314     -0.00070923534502
  C   1.02371981239531     -0.21342912256059     -0.00058600124878
  C   2.18019011092485     -0.97177020659898     -0.00025815487633
  C   -1.06264171714120     -1.70887116364437     -0.00053786272245
  C   -2.47577713523018     -1.37850886046614     -0.00082475983453
  N   -3.45823044631233     -2.27761745067640     -0.00075074148512
  C   -2.64159373570347      0.01893526726375     -0.00119454272653
  C   -3.87488621269366      0.66657509786575     -0.00152409685957
  N   -4.93064179255145      1.16042244899749     -0.00208311371091
  H   3.44913145741226      2.11258715650378     -0.00076158625359
  H   0.79025981595877      3.21187561511310     -0.00139261366857
  H   -1.62822268103050      2.69787846937202     -0.00163474126820
  H   2.25624387378089     -2.04805125143890     -0.00001169996288
  H   -0.67028020936773     -2.71340788892099     -0.00025230860232
  H   -3.26935422843415     -3.26261630547813     -0.00051283830897
  H   -4.42059547947760     -1.98378430783496     -0.00099371797745
