22
Coordinates from ORCA-job ./opt_b97-3c_parallel
  N   -5.13387914267604      1.21442171988128     -0.00063231874392
  C   -4.06012287382951      0.76838076205796     -0.00068349253266
  C   -2.75680394913243      0.24718470648000     -0.00060319242018
  C   -2.39915406569322     -1.09097115934539     -0.00016141997766
  C   -0.96986732331499     -1.16356936471862     -0.00023065336890
  C   -0.12327449921739     -2.25139190236351      0.00010497062428
  C   1.28121754919766     -2.09957884055894     -0.00004371347242
  C   1.82447480770240     -0.83938610727519     -0.00053022969853
  C   0.94718294075131      0.37391495380183     -0.00090998184990
  C   -0.46296337316302      0.18123858118634     -0.00074579428338
  C   -1.54759777995655      1.03736817149493     -0.00097791758940
  C   1.80007070783618      1.43003833673272     -0.00134479387246
  C   3.13785593451146      0.83629785787322     -0.00122092596886
  N   4.27101059004941      1.54093718823091     -0.00151920594574
  N   3.14270325210049     -0.49487004181375     -0.00074271430561
  H   -3.08043801065056     -1.92633701040683      0.00018033579756
  H   -0.53700651907538     -3.25266526934814      0.00049193092250
  H   1.92675282501610     -2.96578306410575      0.00022532763607
  H   -1.52876468338102      2.11613811146919     -0.00136413440684
  H   1.57190328894229      2.48386274812911     -0.00170252907228
  H   5.15042689130518      1.05413144852828     -0.00150789809546
  H   4.27173019277759      2.54304666977034     -0.00204113197623
