21
Coordinates from ORCA-job ./opt_b97-3c_parallel
  N   1.46840106235609      0.17318235633165     -0.04737718435289
  C   0.30890728287683      0.09505902256377     -0.03218044194300
  C   -1.09340599531048      0.02042360594203     -0.01459439899848
  C   -1.98511825315951      1.15889103987555     -0.04294365216089
  C   -3.28906112439350      0.69930766248731     -0.01373030493288
  C   -4.51832066854293      1.41752717960428     -0.02432295315550
  C   -5.72093687416725      0.76656120916289      0.01058335635713
  C   -5.71119220759875     -0.64569174195434      0.05756229866092
  C   -4.42493033692978     -1.42807541863275      0.06966014203903
  C   -3.23833917702824     -0.73578040414163      0.03349089313112
  C   -1.86037326585427     -1.12957288785498      0.03182663345525
  N   -4.72317785917754     -2.73824776976774      0.11666699449581
  C   -6.06799355175099     -2.72928259063836      0.13093317363941
  N   -6.79249991006943     -3.83737144148512      0.17568285784952
  N   -6.71788903271699     -1.49335486798885      0.09677573895129
  H   -1.66097160376451      2.18745083930070     -0.08058545654016
  H   -4.49056476096584      2.49911436149534     -0.06074058372459
  H   -6.66046160706627      1.29903771947696      0.00305551348755
  H   -1.49153444542763     -2.14102717730237      0.06153969463071
  H   -7.79442430764920     -3.77702264285693      0.18450152693486
  H   -6.33996336365974     -4.73342805361739      0.20059615217581
