22
Coordinates from ORCA-job ./opt_b97-3c_parallel
  N   5.11234070872128      1.17602503871756     -0.00068496419007
  C   4.01437841945579      0.79415231706531     -0.00075567085728
  C   2.69309668531561      0.31820668081004     -0.00025880121862
  C   2.31332155026767     -1.07939020701192      0.00020696037933
  C   0.93843079440307     -1.15080297021691      0.00059416237503
  C   0.05503546602014     -2.27342015078223      0.00110029269247
  N   -1.24629566993602     -2.17650517584053      0.00132848589996
  C   -1.76003705697576     -0.90582902257727      0.00108278058975
  C   -0.93841588542611      0.36450293361899      0.00060138700832
  C   0.42500965749936      0.19534877018904      0.00035117786434
  C   1.54284316818144      1.08767656297218     -0.00019153403379
  C   -1.81940087608715      1.45514857612286      0.00048488283736
  C   -3.10614377134310      0.92758082314919      0.00084224415104
  N   -4.26266365366631      1.59907170853144      0.00082365527513
  C   -3.06325329824986     -0.54153004925105      0.00120434284600
  H   3.01106248646074     -1.90218933058522      0.00023359639141
  H   0.47153541814087     -3.27652038203775      0.00128983943258
  H   1.50649633093741      2.16458454282344     -0.00050694968950
  H   -1.55895477049651      2.50049188052848      0.00016216802371
  H   -4.28369107441930      2.60264963897744      0.00073891846639
  H   -5.14303834991353      1.11890501479218      0.00131034760936
  H   -3.92124232478971     -1.19443498249528      0.00150803164707
