22
Coordinates from ORCA-job ./opt_b97-3c_parallel
  N   5.62059919488782      0.04410720978509      0.00069293007685
  C   4.48280945498290     -0.18599662645106      0.00042950962984
  C   3.10045154845460     -0.44646955304934      0.00014421167089
  C   2.50266526840365     -1.67820192460834     -0.00004308491578
  C   1.06707129530235     -1.46371920834585     -0.00010646842844
  C   0.02760052821258     -2.33831653950819     -0.00020459700624
  N   -1.30190432282558     -1.93510875334301     -0.00012451890252
  C   -1.52759018978334     -0.66377777845926     -0.00004083437552
  C   -0.50541540560845      0.39275605104898     -0.00004554980136
  C   0.83845589176442     -0.03453047863081     -0.00001222495747
  C   2.06864062239654      0.58633243980601      0.00011894144062
  C   -1.17308118505743      1.59700725238342     -0.00004351417625
  C   -0.57505678525477      2.85999332357170     -0.00011447892615
  N   -0.04408198075193      3.89529048608595     -0.00053774880971
  C   -2.61963144391383      1.34358048032297      0.00008162263269
  C   -2.84793709385927      0.00538845583689      0.00012673061177
  C   -4.08265905891099     -0.65520088934909      0.00038025946693
  N   -5.10119928793975     -1.21323940244370      0.00052854769401
  H   3.00264074478149     -2.63195939778335     -0.00004820524140
  H   0.17637986443036     -3.40990794293732     -0.00027960038004
  H   2.26664749692720      1.64612101436537      0.00024306486024
  H   -3.36616482773860      2.11959812920295      0.00018771213710
