22
Coordinates from ORCA-job ./opt_b97-3c_parallel
  N   4.78095164872647     -0.38003804680631      0.00539823207610
  C   3.66838704057696     -0.03771433413996      0.00436510632616
  C   2.30384031179115      0.26570893211762      0.00298085002192
  C   1.67817778413157      1.48473556172671      0.00162921250378
  C   0.25337495879737      1.27083702197790      0.00057583018682
  C   -0.78447598924027      2.17703702746399     -0.00089004124713
  N   -2.09155341369627      1.81000914372235     -0.00171093047541
  C   -2.36192525492702      0.52162696765122     -0.00106236085119
  C   -1.32749854222447     -0.58098036444300      0.00052387773880
  C   0.00363926690175     -0.13133775152012      0.00131997387130
  C   1.25572996821477     -0.76789970388599      0.00281120490365
  N   1.51777850283711     -2.07034564551626      0.00391046689973
  C   -2.01138287225629     -1.76402937088462      0.00075741310587
  C   -3.42749532757273     -1.45600056545976     -0.00060552920875
  C   -3.64073947745553     -0.10139165079771     -0.00168726873297
  H   2.17355811561839      2.44233181968170      0.00140446959862
  H   -0.59458137644815      3.24403306016376     -0.00145667935105
  H   0.77608215507032     -2.74634167436186      0.00380359347761
  H   2.46536494590474     -2.40850531829591      0.00497786005851
  H   -1.61506601166103     -2.76839679518724      0.00173964173207
  H   -4.20321244980727     -2.20813870680071     -0.00073653416078
  H   -4.58359265918157      0.41766378949419     -0.00280693437365
