25
Coordinates from ORCA-job ./opt_b97-3c_parallel
  N   -3.97616840716129     -1.67586494088064      0.03310842126082
  C   -2.81002389102964     -1.72654896061094      0.01965554682875
  C   -1.41825413598110     -1.71509274412654      0.00413323179542
  C   -0.56945442221099     -0.59381015289841     -0.00593007637281
  C   0.78188350363806     -1.17635294269756     -0.01834290292955
  C   1.90906536066721     -0.37830068344287     -0.03030476768638
  C   3.20541945928163     -0.93211391158673     -0.02139269711711
  N   4.31655427322815     -1.27170441168681     -0.00589454952387
  C   1.77898909848125      1.05985164945163     -0.02747030601013
  N   2.90731624577054      1.81028320336560     -0.07695929931720
  C   0.49696560448341      1.60355125548733     -0.01646098180013
  C   -0.67560809212240      0.79166048141204     -0.00537216344203
  C   -1.79908655898716      1.70017586249156      0.00015654580773
  N   -3.08566434625624      1.38402362364363      0.01195477297069
  C   -1.29361802142876      3.04165167220371     -0.01145584913142
  C   0.07116351852039      2.97721366105868     -0.02205866176969
  N   0.74439889344948     -2.53974440599445     -0.01325056222493
  C   -0.54460860474320     -2.85088722214704     -0.00064001529600
  H   2.86367140036768      2.78851151590423      0.13552366875037
  H   3.79567343497468      1.36593646718547      0.08031357372038
  H   -3.78457870478721      2.10601717893623      0.01292435557109
  H   -3.41562699044419      0.42687006289708      0.01882682271366
  H   -1.90048943240805      3.93230984658022     -0.01401044829437
  H   0.72074936015987      3.83992427375936     -0.04085072189585
  H   -0.87095295006212     -3.88098269800483      0.00545760399256
