28
Coordinates from ORCA-job ./opt_b97-3c_parallel
  N   -4.19541386710147      0.12479816819282     -0.01966025525210
  C   -3.07801073697062      0.47284095407062     -0.00967580396677
  C   -1.76448064202786      0.91225852465062      0.00297651878124
  C   -0.56194003506529      0.17348710446871      0.01036834295560
  C   0.54160969229847      1.17144693661372      0.02709894530916
  C   1.87791133649446      0.75786529571328      0.03671573850398
  C   2.91413673250374      1.70701229741176      0.02410321922647
  N   3.80010425675369      2.46247564646778      0.00619498622603
  C   2.20802144057367     -0.62994377073033      0.02978606229768
  N   3.51700272314940     -1.00016030159346      0.08427319795909
  C   1.16613668879403     -1.56176126930491      0.02051426516454
  C   -0.21460727949034     -1.16507516565806      0.00840760282411
  C   -0.98753278194220     -2.39558393761183      0.00152573095229
  N   -2.31544899967734     -2.51547801702195     -0.01395312461855
  C   -0.08282626129521     -3.48560020633370      0.01545624399224
  C   1.20188498679490     -2.97815740079564      0.02808212338333
  C   -0.00943316196048      2.44652558144741      0.02436613859710
  C   -1.40583934389076      2.30876604256638      0.01130328968726
  N   -2.30904043250203      3.29779811131979     -0.00291076659269
  H   4.21385001647961     -0.30122504451425     -0.11041876644224
  H   3.76327714876261     -1.93178487305336     -0.19254696391924
  H   -2.94054972265055     -1.72464151684311     -0.01898780719871
  H   -2.73612374766632     -3.42680417822820     -0.01213740170696
  H   -0.36325757130167     -4.52649540308152      0.01901972093680
  H   2.09275686783143     -3.58917399927745      0.05263276868937
  H   0.53479969784493      3.37638090396056      0.03210142239083
  H   -2.02576196862839      4.25799467438836      0.04553522917822
  H   -3.29269041141041      3.09768635387598      0.02837015974186
