27
Coordinates from ORCA-job ./opt_b97-3c_parallel
  N   4.30509868905129     -0.87387883596415     -0.09100829356969
  C   3.20602023864131     -1.26842339833473     -0.04871214183444
  C   1.86618070240013     -1.63617390884014     -0.00320381380532
  C   0.75896795553733     -0.73972583524276     -0.03292326194397
  C   -0.45355208806794     -1.57398106604662      0.02892582800811
  C   -1.73356932852939     -0.98251923147451     -0.01069823978131
  C   -2.89391004544068     -1.78517661362570     -0.01375877845297
  N   -3.87618702026383     -2.40724807749952     -0.02076051849481
  C   -1.87859783168818      0.41579999179263     -0.07635395753880
  N   -3.13313306685985      1.04888580439825     -0.11581963156667
  C   -0.71622808952142      1.18529150625636     -0.08102464544338
  C   0.58246219738129      0.62859547593715     -0.07351212460275
  C   1.46968793280051      1.80776031506549     -0.02167662077188
  N   2.78510480255392      1.81241878561799     -0.03630621169617
  N   0.77960424172475      2.96065052126661      0.06314579809454
  C   -0.52104289233254      2.60261650596066      0.06037910492704
  N   -1.48756578243777      3.50294945054430      0.20154720817866
  C   -0.05331942559354     -2.90987645600989      0.09054443819323
  C   1.34154571270856     -2.94544159690385      0.06932296752127
  H   -3.27748938076585      1.54913446416434     -0.98339014116636
  H   -3.89598449688090      0.39560452068362      0.00168353664110
  H   3.34026589729303      0.96480032944033     -0.07745547856895
  H   3.26033144921661      2.69777729646364      0.02359424905468
  H   -1.23298528304645      4.44341406575320      0.45289377496638
  H   -2.41947045069303      3.17275196704438      0.40619488336495
  H   -0.70868362182360     -3.76357622907370      0.14043768227202
  H   1.94821631523630     -3.83689310807338      0.10221440271550
