27
Coordinates from ORCA-job ./opt_b97-3c_parallel
  N   -3.48754513203757      2.74270845228290     -0.07673814981160
  C   -2.88037245381289      1.74722968320458     -0.04633142791482
  C   -2.19755539315874      0.53560720355534     -0.00763158932191
  C   -0.81331211341444      0.30961998645311     -0.02726424390748
  C   -0.60292176649908     -1.16074972360504      0.04178381692546
  C   0.70404991845587     -1.69403542659348      0.01219110964166
  C   0.90395135925625     -3.08619997605465     -0.00655627677569
  N   1.11119371289789     -4.23135672274385     -0.02839877305356
  C   1.82882691435446     -0.83911937134688     -0.05683210717952
  N   3.10478445836537     -1.35058629322834     -0.09729314511574
  C   1.61436302989190      0.54775093938038     -0.05163858862205
  C   0.30370445840912      1.11733046689387     -0.07403299446773
  C   0.51183595632645      2.53313779376374     -0.06598131122622
  N   1.79634462155242      2.85450080635609     -0.00755970849762
  C   2.48150841098378      1.65684228666782      0.03239581159958
  N   3.82223552113216      1.67518894382411      0.15522857833986
  C   -1.83866458776962     -1.77240791721412      0.09289659741531
  C   -2.82447917543224     -0.75021479152223      0.06481853773383
  N   -4.14697176181987     -0.93151766601801      0.10016398746718
  H   3.74022048368635     -0.86853109006458     -0.71320458023919
  H   3.16466082689332     -2.35223548237950     -0.20558852081245
  H   -0.25216285912115      3.29600086402837     -0.08876489579154
  H   4.22264852054894      2.57173581115486      0.38042620973015
  H   4.27548375037949      0.87612592142011      0.56684628795997
  H   -2.03293892174776     -2.83115598570951      0.14415714799880
  H   -4.77261037313588     -0.14524800112507      0.07635277793077
  H   -4.54762345758433     -1.84933030778018      0.14733091079465
