24
Coordinates from ORCA-job ./opt_b97-3c_parallel
  N   -3.30293049326256      2.32234850050066      0.00212778888946
  C   -2.14814956051623      2.14479056679468      0.00141467786156
  C   -0.78780605700587      1.85375004589589      0.00080084536199
  C   -0.21114095825142      0.57776264185697      0.00097209570489
  C   1.25230254403329      0.79033427038057      0.00012805356987
  C   2.12130305581587     -0.29238156942083      0.00009232029394
  C   3.52160983674584     -0.08528499607130     -0.00069942412094
  N   4.67026917233287      0.08341503303566     -0.00125551703270
  C   1.61405502026663     -1.61868745294409      0.00085479492185
  C   0.25996885496146     -1.81961196386607      0.00163380109474
  C   -0.67356474248507     -0.74712148461909      0.00171267822407
  C   -1.97092280422884     -1.35795428697839      0.00260693812140
  N   -3.15203455086437     -0.77510270291050      0.00299304913029
  C   -1.80766560895256     -2.80773012194509      0.00306390840362
  C   -0.48500066072313     -3.07522522684840      0.00248651776452
  C   1.49674004255795      2.18661216789132     -0.00053297193749
  C   0.28334595393830      2.82336554473447     -0.00014142816945
  H   2.30522067951211     -2.44914748876791      0.00081043639930
  H   -3.26701666306063      0.23457726505025      0.00270359991952
  H   -3.99110657935723     -1.32973524127040      0.00363880717037
  H   -2.62335859782644     -3.51265984988720      0.00374534332251
  H   -0.03136731240677     -4.05444262696668      0.00262090213442
  H   2.46864952750973      2.65041024820693     -0.00121209378016
  H   0.12167664786701      3.88980900304856     -0.00046339234759
