25
Coordinates from ORCA-job ./opt_b97-3c_parallel
  N   3.13827921744987     -2.36185490929952     -0.00549679602913
  C   2.01272145167521     -2.04636821859951     -0.00500157610763
  C   0.68502490430356     -1.64506597703823     -0.00444010171246
  C   0.17990748553492     -0.32725424329748     -0.00267254655946
  C   -1.30000378525009     -0.43507765579049     -0.00287556972895
  C   -2.10067898722113      0.73116363800470     -0.00133354901604
  C   -3.50792562359941      0.60046917762031     -0.00157442265980
  N   -4.66131209876574      0.46153002392420     -0.00181170643990
  C   -1.50171570237806      1.99120936072574      0.00038332974696
  C   -0.11678674523709      2.08810293462095      0.00055643990765
  C   0.72922798065494      0.93923992138417     -0.00096729923054
  C   2.07174686501256      1.49699196761618     -0.00017307853422
  N   3.23013205615887      0.86635567699530     -0.00098040238390
  N   2.05062805001425      2.86399851552915      0.00166181063481
  C   0.75955619293354      3.20139496742508      0.00207864614603
  C   -1.64061465920640     -1.77450693140104     -0.00470841052239
  C   -0.44209110756417     -2.52813646126277     -0.00569420762049
  N   -0.35098790067033     -3.86308386731503     -0.00738670500394
  H   -2.12082068219635      2.87694119329245      0.00155541941022
  H   4.07042907575469      1.42091712292137     -0.00021058384318
  H   3.31053246344933     -0.14057747232844     -0.00234279370534
  H   0.47160559560704      4.24380575247631      0.00347346759315
  H   -2.63876706177936     -2.18075166351776     -0.00528059927137
  H   0.54220288509987     -4.32206213949329     -0.00858398530836
  H   -1.17153132938056     -4.43900474559235     -0.00889341776173
