27
Coordinates from ORCA-job ./opt_b97-3c_parallel
  N   4.38599522233068     -1.47916785984972      0.07052395361521
  C   3.39740171769599     -0.85810531025838      0.05663482844233
  C   2.24498980363246     -0.08080049373438      0.03805572839798
  C   2.22256802580806      1.32978224878020     -0.00966815609923
  N   3.31643845730906      2.11592456360495      0.01648813867585
  C   0.87253791029272      1.79832341668144     -0.05088468786078
  C   0.03528669180026      0.69687473151904     -0.03254731779366
  C   0.88874793003755     -0.51707675818570      0.01262517705509
  C   0.34350273093941     -1.76813407422694     -0.00251434454750
  C   -1.06971510949377     -1.94959897577075     -0.04620053725643
  N   -1.55350475253797     -3.22802599454921     -0.10655437087700
  C   -1.89802023826561     -0.82855967999673     -0.07352732868451
  C   -1.34977434733309      0.49156713619169     -0.05143752266605
  C   -2.44587870544833      1.39049458516547     -0.02598258458567
  N   -2.36559606079845      2.74328248525187      0.00706785074740
  C   -3.65868549830794      0.63555376977091     -0.06425125614683
  C   -3.32325719052573     -0.69858979983895     -0.08940712056073
  H   3.24050043991283      3.08337332523147     -0.23676432061170
  H   4.21987290975979      1.69173302307493     -0.10690767652868
  H   0.60506684676346      2.83988388092937     -0.13637183368187
  H   0.98723448199039     -2.63926032054090      0.01194763403608
  H   -0.94440074247225     -3.96502839233507      0.20182507519469
  H   -2.52059495943787     -3.37642896506905      0.11797597641036
  H   -1.50723454162953      3.15251310099646      0.33156047787507
  H   -3.19234927465797      3.25604117429676      0.25922926949635
  H   -4.65401986946800      1.05109388004501     -0.06882424125676
  H   -4.03789095479614     -1.50828306808382     -0.11946724458903
