26
Coordinates from ORCA-job ./opt_b97-3c_parallel
  N   -3.16931657996465      2.71300386716280     -0.10166412775570
  C   -2.63709238219066      1.67496852554917     -0.06911329194350
  C   -2.04358894604910      0.41856419012523     -0.02693321136613
  C   -0.68595378312550      0.07149652127165     -0.03836339039783
  C   -0.67507166550878     -1.41167201315695      0.02973615507769
  C   0.51582276255690     -2.11621515231036      0.01975197578314
  C   1.73295957690053     -1.42427901527897     -0.04993457748474
  N   2.93198994541661     -2.12016041766643     -0.09579836966106
  C   1.73618227074814     -0.01743964541592     -0.04667310374060
  C   0.52360402196109      0.73553126902736     -0.07924593621196
  C   0.87731311190492      2.12504459666796     -0.07092635149258
  C   2.24569498858225      2.23993407110057     -0.00464256735045
  C   2.79775945967719      0.92125231036370      0.04162958827266
  N   4.11845806457088      0.63011943777597      0.16103661299560
  N   -1.92741858375474     -1.91351920250628      0.06779344711735
  C   -2.74110677531743     -0.83714047853118      0.03523245169916
  N   -4.06917851713767     -0.97494341169367      0.05548034524533
  H   0.49648811633980     -3.19803328484566      0.01696395230312
  H   2.82441194943883     -3.11488255214629     -0.21647801262680
  H   3.60124017260054     -1.75164469241396     -0.75533562959583
  H   0.17186508943945      2.94070234296501     -0.09289859206991
  H   2.81823493158375      3.15310512217429      0.03618811446051
  H   4.72453066338244      1.38390899396029      0.43864828983897
  H   4.35081882822365     -0.25637632211923      0.58253287756391
  H   -4.46626660388708     -1.89375047431438      0.12461309905330
  H   -4.67358007799132     -0.17419093664474      0.06159022458640
