27
Coordinates from ORCA-job ./opt_b97-3c_parallel
  N   -3.08850956143554      2.71457181368957     -0.09055040785059
  C   -2.59545284953536      1.65615244103754     -0.06949296626663
  C   -2.05159841605209      0.37741610803848     -0.03780603907934
  C   -0.68836650363380     -0.00550499259958     -0.05813679422238
  C   -0.64217276226910     -1.48926757370678      0.02278353889602
  C   0.58766677900700     -2.16275783130451      0.00652633989662
  C   1.77336321416501     -1.45256655339660     -0.06343858416363
  N   3.01839794696868     -2.09396332470539     -0.09057760704073
  C   1.73647344212426     -0.03648517845937     -0.07815826264328
  C   0.49982743364025      0.67878365010600     -0.10983772484649
  C   0.81003614020133      2.09246484109781     -0.07794584456556
  C   2.16200545541653      2.24092260061364      0.01130850704185
  C   2.75734598247540      0.92161642525364      0.04232019258525
  N   4.08413632994045      0.68439022248098      0.17742499209315
  C   -1.94747885038193     -1.94838551322238      0.07527735695088
  C   -2.81287898057440     -0.82083312971222      0.04133236156957
  N   -4.15736069849005     -0.86239940214175      0.04702386183096
  H   0.60681267816939     -3.24603778128417      0.00424431875620
  H   2.93858021204834     -3.09881138694341     -0.13445305517028
  H   3.60561604734884     -1.77296432797209     -0.84853132710744
  H   0.07888343242198      2.88441104864580     -0.10020608911910
  H   2.71391566938978      3.16645874731568      0.06431652097902
  H   4.34666722088467     -0.22587517287991      0.52541382475954
  H   4.65728898472223      1.44291765604699      0.50542068483397
  H   -2.26974003008042     -2.97651280720121      0.12850991644199
  H   -4.67654267599668     -0.00790182394999      0.15103326093980
  H   -4.63509887817490     -1.71446083404670      0.27256156590065
