25
Coordinates from ORCA-job ./opt_b97-3c_parallel
  N   -3.51212344393017      2.33215268513475     -0.09681727303091
  C   -3.02517975145618      1.27408829167543     -0.05323074134244
  C   -2.39618126624936      0.02853547890849     -0.00314116621096
  C   -0.97383654155224     -0.19681253668246     -0.05120228248025
  C   -0.75731410768041     -1.65449182890666      0.03345724144660
  C   0.54879149764177     -2.18363441021530      0.00111216359743
  C   1.63661782090827     -1.34608298185751     -0.08685215209484
  N   2.97111012188101     -1.81247182968025     -0.11820499462417
  C   1.42418156576582      0.05918813190326     -0.11938409092988
  C   0.11394879633615      0.62036888726819     -0.13199893679077
  C   0.24767242515091      2.08233680533709     -0.08417747676962
  C   1.55813730215828      2.38615666725115      0.01375131203478
  C   2.31526266187862      1.12832636006851      0.02704582823241
  N   3.64200059440316      1.05529234697788      0.18798098463564
  C   -2.00853376189546     -2.24586041987796      0.11314433470948
  C   -2.99410436490431     -1.22540417546795      0.08997079099395
  H   0.69144153653758     -3.25770696287777      0.01107465153564
  H   3.01820481440749     -2.81564262641123     -0.01076621290889
  H   3.42974609640757     -1.56951196836884     -0.98827068775082
  H   -0.57938459132348      2.77280399766681     -0.10422816280756
  H   2.00174861527064      3.36741485290433      0.07816852577288
  H   4.14979113260626      1.86542758439242      0.49719913989070
  H   4.03405866315914      0.14933807721620      0.40667041712934
  H   -2.21156186047400     -3.30263338044121      0.18505583738736
  H   -4.05978361734726     -1.38862114311756      0.14013111317498
