23
Coordinates from ORCA-job ./opt_b97-3c_parallel
  N   2.47263563102485      2.64119317985615     -0.00237253964317
  C   2.22509875356502      1.49887419971399     -0.00204601883576
  C   1.86438581670210      0.15526856378585     -0.00170963412064
  C   0.56415819422307     -0.35972491771332     -0.00103698703393
  C   0.70099204141310     -1.82634980947173     -0.00129117589466
  C   -0.40536748985235     -2.63939611648617     -0.00093320348822
  C   -1.70293486758894     -2.08336634259492     -0.00029332567657
  C   -1.85448769180018     -0.71949630582839      0.00004828839766
  C   -0.74301328210124      0.16823241044407     -0.00027341025967
  C   -1.29163221799128      1.48254701409659      0.00035293417621
  N   -0.65946373883429      2.64319249475936      0.00045247248190
  C   -2.75246577309565      1.38624337610666      0.00097315932377
  C   -3.07963907806974      0.07821183892499      0.00076935558190
  C   2.09846855461924     -2.13645102945540     -0.00199665027734
  C   2.79088730590265     -0.96241427478579     -0.00226074714948
  H   -0.28654438572686     -3.71531194395246     -0.00117513223342
  H   -2.56779925109682     -2.73370864476033     -0.00003961276761
  H   -1.17873647631892      3.50363915881158      0.00094384289003
  H   0.35253469664628      2.71475189918136      0.00001468650888
  H   -3.41819591971184      2.23468895258732      0.00150422459153
  H   -4.07780495792550     -0.33236097679654      0.00110956361555
  H   2.51685213128182     -3.12974689615254     -0.00232186544823
  H   3.86325853363548     -0.84614791587030     -0.00283816423875
