22
Coordinates from ORCA-job ./opt_b97-3c_parallel
  N   2.26307185027871      2.76799759691958     -0.00063264780586
  C   2.14042109263051      1.60618631723984     -0.00073874386949
  C   1.88468076884458      0.23841849805782     -0.00076586241538
  C   0.61092051780230     -0.34368825509329     -0.00061286322278
  C   0.81314135937139     -1.80957017416308     -0.00073386717552
  C   -0.26752062432257     -2.67389208990400     -0.00062500132935
  C   -1.57684178143512     -2.17860442396031     -0.00039523782121
  C   -1.77834628748165     -0.80854518029422     -0.00027399289968
  C   -0.70964076299639      0.11728448585369     -0.00037768893677
  C   -1.35766124890140      1.39781146637157     -0.00018347041404
  N   -0.84385629810495      2.60391839089014     -0.00017414152381
  N   -2.75483899163621      1.27997492723300      0.00002797628490
  C   -2.98209976300646     -0.01090567548301     -0.00002862684367
  C   2.21084088081558     -2.04598164637428     -0.00096835991905
  C   2.85068473810109     -0.82890636819456     -0.00099388081295
  H   -0.09971767639680     -3.74295471413135     -0.00072005988521
  H   -2.41643827062468     -2.86072754269974     -0.00031074294194
  H   -1.47536371778252      3.38899757959581     -0.00001424440722
  H   0.15756070916453      2.77476784175108     -0.00032173469899
  H   -3.99603685172843     -0.39009475576119      0.00010339098177
  H   2.68402988092466     -3.01420776658624     -0.00110411994266
  H   3.91774347508385     -0.66960603666728     -0.00115565150109
