24
Coordinates from ORCA-job ./opt_b97-3c_parallel
  N   -2.54777125834269     -2.95908818828232     -0.00839802526700
  C   -2.18616224136993     -1.84975456797744     -0.00791099306030
  C   -1.78834113722179     -0.51698243466671     -0.00752431748674
  C   -0.48971172937128      0.02561403356261     -0.00519578141097
  C   -0.69241654619704      1.49240311938872     -0.00652082766540
  C   0.40026417223018      2.36590381811984     -0.00488615051152
  C   1.68190909194789      1.84453667929021     -0.00196027912859
  C   1.88717601041190      0.45994092990653     -0.00066453309053
  C   0.80017491326162     -0.45905851090223     -0.00228843391438
  C   1.35071368822457     -1.79502863101569     -0.00030840616949
  C   2.71462979106223     -1.71906513455904      0.00245451936069
  C   3.07674347105939     -0.32348210142639      0.00233156078480
  N   4.33451648766230      0.12608002002405      0.00458943607904
  N   -1.99626849783336      1.80835129173930     -0.00942986644778
  C   -2.65457144779048      0.61774252852499     -0.01006599126651
  N   -3.98992387969126      0.58331044944953     -0.01233295642384
  H   0.22830530157545      3.43238029271788     -0.00593599289404
  H   2.52304936274744      2.52908915517570     -0.00071978928929
  H   0.76583426569175     -2.70157691237873     -0.00093941277639
  H   3.41345567313932     -2.54018215846814      0.00440846448417
  H   5.11241724155835     -0.50708601364478      0.00720753121994
  H   4.54072752297739      1.10791653379456      0.00493350625515
  H   -4.50218887401628      1.44588718269523     -0.01676494286796
  H   -4.48796403841568     -0.28751388166765     -0.01569472451305
