23
Coordinates from ORCA-job ./opt_b97-3c_parallel
  N   -2.52565232971500      2.97084518211680      0.00050623694121
  C   -2.16908075687027      1.86059081200840      0.00070039241889
  C   -1.78649986816418      0.52248589582310      0.00119997144628
  C   -0.50654107364986     -0.03619320544011      0.00154380637582
  C   -0.72901434293038     -1.50012556776378      0.00208729162389
  C   0.34630585321280     -2.38554595397868      0.00255824307980
  C   1.64563346890655     -1.89077885703412      0.00250684426744
  C   1.87200494153708     -0.51644856110171      0.00199409821678
  C   0.80329836205543      0.42210416124382      0.00150975379974
  C   1.42679856826095      1.70751440438966      0.00107710797593
  N   2.75442736245485      1.64049187338814      0.00125301527956
  C   3.04825537547454      0.29527174218030      0.00180615501328
  N   4.32230843813036     -0.08173175282573      0.00208826462087
  N   -2.04307717169794     -1.79893663773407      0.00206715432835
  C   -2.67859642911133     -0.60783116401298      0.00153646823591
  N   -4.01109251695806     -0.53383739650101      0.00122984482644
  H   0.15653694318060     -3.44907408575577      0.00295425540990
  H   2.47198588816582     -2.59211280263745      0.00287261290598
  H   0.92592570080887      2.66518217708990      0.00065491328523
  H   4.59523425578326     -1.04651466165632      0.00248856973382
  H   5.03621067469188      0.62598432202848      0.00189198950995
  H   -4.48336714479296      0.35147738791376      0.00153962318833
  H   -4.55019648577304     -1.38030921284069      0.00214949951664
