21
Coordinates from ORCA-job ./opt_b97-3c_parallel
  N   -2.21067651248272     -2.96751333557850     -0.00026390123608
  C   -1.82870794620233     -1.86663055793487     -0.00116584664325
  C   -1.43759347278050     -0.53055157660065     -0.00228822663862
  C   -0.17603801495065      0.02899000442189     -0.00252106011484
  C   -0.41111171787400      1.50495519406657     -0.00391688122657
  C   0.65068141476377      2.39006316290435     -0.00449165812103
  C   1.95968889960850      1.89131038669735     -0.00375427271789
  C   2.20215546132773      0.52503653645368     -0.00245452816474
  C   1.14634061277890     -0.42904623418723     -0.00181549186126
  C   1.78531182343770     -1.68448520131310     -0.00053149498681
  N   3.14332065648657     -1.56970568012316     -0.00034028860959
  C   3.39698593642353     -0.25458774880643     -0.00148469732750
  N   -1.73398177215286      1.79658725353425     -0.00447286167027
  C   -2.35318883325538      0.61207642858333     -0.00352962084588
  N   -3.67585225946596      0.49934340712908     -0.00371238755718
  H   0.46032936019369      3.45312161869093     -0.00550160030484
  H   2.78833997773029      2.58874644140727     -0.00421020099366
  H   1.32014214050017     -2.65934272519404      0.00025398901264
  H   4.41412894885550      0.11224854915816     -0.00159884555139
  H   -4.12278810367353     -0.40042958051850     -0.00301728024336
  H   -4.24263018936841      1.32930828250959     -0.00461600489787
