22
Coordinates from ORCA-job ./opt_b97-3c_parallel
  N   1.41122308366569      0.04054621408809     -0.32425992113958
  C   0.25386604657059      0.05647216832314     -0.18569565280767
  C   -1.13310556712517      0.07565759249741     -0.06274671759421
  C   -1.92466795297285      0.08627759536365      1.08223175673881
  C   -3.33448675616965      0.10599173836591      0.58012829467327
  N   -4.41486117848312      0.12067454864773      1.36314013784974
  C   -4.20286692896706      0.11731058729791      2.68216195058188
  C   -2.93973044328456      0.09963823835867      3.25997091633911
  C   -1.76436640207330      0.08363073805732      2.45404295008535
  C   -0.67295722778423      0.06834934282899      3.37411987669131
  N   -1.07098907508415      0.07350769483436      4.64231941128210
  C   -2.44618418720003      0.09248292877571      4.60040196388842
  N   -3.12380748364466      0.10153528990610      5.74246097117160
  N   -3.37125354474962      0.10698724489275     -0.75874221155024
  C   -2.07662050883889      0.08918703323612     -1.15118331081712
  N   -1.75593796618082      0.08523986611278     -2.44233632858190
  H   -5.10046227713505      0.12957239863606      3.29461854643397
  H   0.37909595162440      0.05392021066498      3.12836957975172
  H   -2.61331399918050      0.09432788754353      6.60857229190237
  H   -4.12612575767682      0.11536660092013      5.77038077085868
  H   -2.48834054379157      0.09573337908583     -3.12934795496583
  H   -0.79786728151849      0.07219070156283     -2.74217732079190
