26
Coordinates from ORCA-job ./opt_b97-3c_parallel
  N   -2.82805877658764      3.12364672160151     -0.09458313398138
  C   -1.99286421383758      2.31337350674909     -0.04715519889524
  C   -0.94800745691028      1.37460341781946      0.00357544494358
  C   0.39264935409834      1.84546519424970      0.03643286197781
  N   0.63626243122552      3.17926881834970      0.08625390750961
  C   1.43362252142267      0.89674097176866      0.06210884289458
  C   1.17322995407857     -0.50974797292772      0.04471047474407
  C   -0.11954186354735     -1.01276946099187      0.03942890684400
  C   -1.23333946742144     -0.00370908678486      0.00803411379701
  C   -2.42621811150486     -0.69128429636480     -0.00721259075338
  C   -2.10777751116897     -2.07820655212804      0.02875093367731
  N   -3.01990476328391     -3.06681468442515      0.01723202268601
  C   -0.69929513876369     -2.27106688404023      0.05297249748103
  C   2.47136515820346     -1.10681012837676      0.03953218408281
  N   2.76771627239041     -2.41944807567237      0.02680318090642
  N   3.46258381377803     -0.17895956948969      0.07196118412884
  C   2.83572606050724      1.01124512751928      0.08519707188997
  H   1.55621262497662      3.51538924565836     -0.12671123134947
  H   -0.11797557386434      3.81567052153032     -0.10821461617336
  H   -3.41821138160232     -0.27099770694710     -0.03099523664889
  H   -3.99358801099054     -2.85497953212598      0.13397388889681
  H   -2.74271288659199     -4.01644533493058      0.18317482552078
  H   -0.21243030658764     -3.23059241521833      0.11996854040648
  H   2.07054899348936     -3.07583119572718     -0.27233536905307
  H   3.72745665930135     -2.66354737045152     -0.14907537719964
  H   3.42545834159098      1.91777339395612      0.11371882616730
