27
Coordinates from ORCA-job ./opt_b97-3c_parallel
  N   -1.61223962701888      4.00434931154911     -0.01417873446648
  C   -1.16240210267350      2.93019461254982     -0.00968808339204
  C   -0.57705654308080      1.65101095975129     -0.01121627900892
  C   0.83283004999254      1.54405175458138     -0.06759795154893
  N   1.65308323924145      2.67271926556351     -0.06184193427564
  C   1.39962248647547      0.26719212125983     -0.09383450857762
  C   0.59882690174338     -0.90585167664313     -0.13242209243985
  C   -0.76631511729421     -0.84486430375518     -0.07393733759667
  C   -1.38871404494284      0.48781788172931      0.00442070396316
  C   -2.74524939355567      0.24193286748280      0.05706058160450
  C   -2.87099020854955     -1.17994861289331      0.01436037080802
  N   -4.02968515354897     -1.87427281990544      0.08828793945750
  N   -1.68801645217832     -1.83532038517149     -0.06314175277995
  C   1.53359329044088     -2.00229961883308     -0.07384832422917
  N   1.17048443768421     -3.27981068920361     -0.09799049928360
  N   2.80584438577478     -1.58297171351847      0.02372175523846
  C   2.73145572684958     -0.22306869036747      0.03841149725403
  N   3.84667698946616      0.51387249682826      0.17899953575448
  H   1.13684968840875      3.54124337844740     -0.06201606514627
  H   2.32221448383870      2.67668287032973     -0.81800583356960
  H   -3.54757507655150      0.95749699874362      0.12897663314271
  H   -4.88958841144032     -1.40044688100481     -0.11853284035959
  H   -3.98887775303029     -2.84796940479183     -0.15707575445968
  H   0.18595930342932     -3.49857782901554     -0.08943278973658
  H   1.85304753675385     -4.00521362367020      0.03028726075277
  H   3.73804703955963      1.45747914932935      0.51485235867133
  H   4.67317797690625      0.02114389472815      0.47386628172364
