25
Coordinates from ORCA-job ./opt_b97-3c_parallel
  N   1.32205347484608      0.17691747250502      0.14836816468988
  C   0.16764916596605      0.09522972025626      0.02628116695620
  C   -1.23640106911715      0.02635410955819     -0.00464826652777
  C   -1.96252134351622      0.22900433594627      1.22456604069924
  N   -1.25618897346310      0.41313074477856      2.36742638698938
  C   -3.36299963992761      0.18642217864200      1.20706286325397
  C   -4.07845609322839     -0.04907391197347     -0.00610019490391
  C   -3.41358847243437     -0.24770478819576     -1.19059065857880
  C   -1.93719625738046     -0.20539148334309     -1.18689077876650
  N   -1.50520755188060     -0.41601556448038     -2.43729996602959
  C   -2.66469054496065     -0.57484122130927     -3.13039598362749
  N   -2.65049179140883     -0.79495570657782     -4.44740068061614
  N   -3.84328092435670     -0.48507399313133     -2.43989693670667
  C   -5.47682467718756     -0.03641710923380      0.29846438183487
  N   -6.42266958064272     -0.22597398432320     -0.62663349093462
  C   -5.61726196070826      0.20283531866261      1.68894745780643
  C   -4.34382934047583      0.33443734317955      2.22612475605796
  H   -0.27009556149641      0.60114229592968      2.30411845382055
  H   -1.72140600921198      0.77018357763076      3.18002054222729
  H   -3.50535647492442     -1.00572284177120     -4.92623053359639
  H   -1.77166827285554     -0.94223972102535     -4.90770249150182
  H   -7.39887972972073     -0.22147475286746     -0.39813276541166
  H   -6.14204619879324     -0.38974294135751     -1.58148303123780
  H   -6.54735524684632      0.26825799942326      2.22984148526488
  H   -4.15023692627516      0.51490292307721      3.27395407883865
