25
Coordinates from ORCA-job ./opt_b97-3c_parallel
  N   -3.75247733223400      1.99458176010156      0.03502901722553
  C   -2.79510211189450      1.33564503209743      0.02714531672897
  C   -1.55952922342809      0.65387479837122      0.00663990328265
  C   -0.37240069296555      1.42137470131098     -0.06912512333521
  N   -0.39203392824830      2.82136107521063     -0.09388004874800
  C   0.84351858487597      0.74173507793615     -0.09755294005969
  C   0.93574955044758     -0.66927195161873     -0.10302640033463
  C   -0.19768580267970     -1.45977349262770     -0.06022786601009
  C   -1.49874109606273     -0.75084800193003      0.02799611979618
  N   -2.51748358628156     -1.61312577472377      0.09522178001191
  C   -1.93228353254490     -2.84295110228373      0.05807024971567
  C   -0.53812354400902     -2.81820609196678     -0.02959686483356
  C   2.36176368838530     -0.93143527209171     -0.05029108869486
  N   2.92655065993123     -2.13163738815386     -0.06399575739464
  N   3.10113202808985      0.19121299679424      0.03670132041238
  C   2.19903324524045      1.19942497238876      0.04026951108884
  N   2.58135329052285      2.46743135773215      0.18343499399462
  H   0.04153706818043      3.19893817170104     -0.92547145274761
  H   -1.32726004774364      3.19788600487519     -0.01523465133525
  H   -2.55200061409805     -3.72822322630080      0.09591410342032
  H   0.10788969594201     -3.68084412012860     -0.07657872048325
  H   2.36742412328188     -2.96361246712680     -0.09072769584481
  H   3.92471111495510     -2.21493315455558      0.01613265970073
  H   3.53489959802203      2.64462391532623      0.45189612988832
  H   1.87801521251529      3.14855755866247      0.42776289795542
