23
Coordinates from ORCA-job ./opt_b97-3c_parallel
  N   -1.83691804748858     -3.64615632857266      0.00152383050233
  C   -1.11438795980728     -2.73561097741877      0.00100918931938
  C   -0.28115396794569     -1.59634686775790      0.00046942841535
  C   1.08691968486877     -1.70118320734806      0.00031990955568
  C   1.88892491498681     -0.53363201297650     -0.00007615799097
  C   1.31347179973628      0.79224634044179     -0.00030174279938
  C   -0.04528158678891      0.94646210004800     -0.00025174157328
  C   -0.88654443515264     -0.28912635354999      0.00023196459670
  C   -2.18104356115536      0.09946966938748      0.00043977066058
  C   -2.20314517839738      1.57458327899439      0.00031105600719
  N   -3.36068909823771      2.25658878971708     -0.00147026453219
  C   -0.91382439502734      2.06594887506540     -0.00019767609522
  C   2.41165488379433      1.73509267280675     -0.00075836451863
  C   3.57874405777017      1.02263971937318     -0.00081452560562
  C   3.26355611716856     -0.38231250310422     -0.00041221972177
  H   1.55234501379062     -2.67700511920422      0.00052197236898
  H   -3.05482368527301     -0.53392485794577      0.00030467411175
  H   -4.24272812904540      1.78120636865050      0.01008266261160
  H   -3.37601119949997      3.25938125096709      0.00662700075777
  H   -0.61986254137849      3.10190944980460     -0.00051918853159
  H   2.31314791835604      2.80907656194102     -0.00102323734811
  H   4.57681291181325      1.43141073358009     -0.00112566043081
  H   3.98873733901289     -1.18288888239928     -0.00041231305976
