27
Coordinates from ORCA-job ./opt_b97-3c_parallel
  N   -2.25614674948825      3.74751710454297      0.10801078420694
  C   -1.56634709482871      2.81128835413367      0.07996569047642
  C   -0.74747122872040      1.66278491882547      0.04248769481629
  C   0.64431423212419      1.79505189804174      0.01606257692054
  C   1.44115259607035      0.66204619527339     -0.01507263936548
  C   0.88536074524685     -0.64826258209182     -0.01887955820523
  C   -0.48335569585756     -0.84408747546598     -0.02519963558469
  C   -1.34156863292663      0.37739741630064      0.02105381060722
  C   -2.65563840157589     -0.03263040180400      0.02027309113971
  C   -2.65789146274570     -1.45873692081633     -0.04154267920611
  N   -3.78993509807243     -2.21567205721573     -0.03190498055288
  C   -1.34054520784141     -1.95177831676336     -0.06474776969172
  C   2.00190185268688     -1.57480989131011      0.00336307208507
  N   1.86473758493877     -2.91280128743448      0.02207784073610
  C   3.19990042165721     -0.85908293253966     -0.01924290668685
  C   2.86931266884400      0.51102530383449     -0.02783764056194
  N   3.75108536119383      1.52403122472390     -0.00523555892363
  H   1.06863827674456      2.79061293771456      0.03405515673040
  H   -3.52929116642069      0.59839138618365      0.05493579011366
  H   -3.71933108417872     -3.16995781337937     -0.33782252427033
  H   -4.65054326598058     -1.76363083591908     -0.28556456266946
  H   -1.08278777804096     -2.99435364386656     -0.16832210317376
  H   0.97218132308809     -3.29681367168524      0.27317834588023
  H   2.66268716533357     -3.48761917864766      0.22479080730578
  H   4.19525733653696     -1.27313132374482     -0.00520930262084
  H   3.43667981228482      2.46614670381206     -0.14565809915072
  H   4.72652098352784      1.35053154809767     -0.16143030595472
