24
Coordinates from ORCA-job ./opt_b97-3c_parallel
  N   -3.94566732395661     -1.67966344499923     -0.12809318061436
  C   -2.96418698312312     -0.70117241566600     -0.04915111328060
  C   -3.37963679279044      0.63104914459818     -0.03619427967144
  C   -2.60549924944399      1.77423847290531     -0.01687882404891
  C   -1.22876485844677      1.91541639717603     -0.00147355533548
  C   -0.19453689750143      0.97538203477638     -0.00372442456979
  C   1.11245930202029      1.48281788913296      0.02002250927092
  C   2.19511672355479      0.63046353229628      0.01765655957387
  N   3.52023641785284      0.87864043992114      0.03774691026860
  C   4.04742480222824     -0.37058220561662      0.02144020887458
  N   3.20486002001776     -1.42254722650059     -0.00735644992182
  C   1.99223919680476     -0.81901633406491     -0.01089137839289
  C   0.72453580665794     -1.34426836271298     -0.03451359201483
  C   -0.40349355156199     -0.49599442314103     -0.03134815998771
  C   -1.63556716152867     -1.14130455113359     -0.05441345757468
  H   -1.54205186807147     -2.22264238386685     -0.08246494475755
  H   0.58346255841803     -2.41690803384767     -0.05600217710466
  H   5.11868815414306     -0.51739551994869      0.03134912908839
  H   1.26494233792267      2.55384492656474      0.04004004691334
  H   -0.88582867734676      2.94339745208051      0.01680922088640
  H   -3.16102342740944      2.70353441481867     -0.00779668556178
  H   -4.45262762908579      0.79047110842845     -0.04767702564816
  H   -3.68512514116396     -2.59695085521153      0.19079711868586
  H   -4.86128379208991     -1.41411504038896      0.19121195402266
