28
Coordinates from ORCA-job ./opt_b97-3c_parallel
  N   -5.66898786160959     -0.71548652348738      0.28231512841905
  C   -4.51720157710520     -0.58772610912257      0.17468762606829
  C   -3.12312383892294     -0.45394639671459      0.03416730152706
  C   -2.62015332725002      0.85500985468689     -0.23679610821021
  N   -1.37875580158497      1.29497072225076     -0.10603791825621
  C   -0.22047248026429      0.68431723030984      0.00713077668411
  C   0.03163893326558     -0.77595630931546     -0.14050955625367
  N   1.28077421943470     -1.29885817840768     -0.24860955843862
  C   2.29015764915568     -0.47768061206802     -0.09066593766132
  C   3.68299979477267     -0.70663550792685     -0.13464815692118
  C   4.34503605680365     -1.91540890931301     -0.37444544282596
  N   4.89915325202123     -2.91793343826096     -0.57172328232836
  C   4.25733930861204      0.55114768283118      0.14275808351421
  N   3.36591429438897      1.55324008679788      0.34872234069684
  C   2.16805106667233      0.97510954012868      0.21353881902824
  C   0.90072311485684      1.53205615445259      0.24329208478295
  C   0.69415139614957      2.91920434048473      0.42496562107215
  N   0.51980851977337      4.05521950626600      0.57832113065475
  H   5.31747795361248      0.75115477435636      0.19891509128010
  C   -0.96047218014742     -1.72691552594755     -0.06989201437993
  C   -2.36027610023933     -1.63507253558216      0.10573995744884
  N   -2.99776962715609     -2.80645073329530      0.31878710792064
  H   -3.99345822879533     -2.85203835993950      0.44373688510149
  H   -2.48065152545102     -3.65927396603882      0.41631777933132
  H   -0.56433266769120     -2.73408819183139     -0.11526244423970
  N   -3.49728089929816      1.81519551280641     -0.59337955841521
  H   -4.48528994418830      1.64712494009376     -0.65093285982439
  H   -3.16578126021524      2.76387711718619     -0.59399276057528
