29
Coordinates from ORCA-job ./opt_b97-3c_parallel
  N   3.25931802541941      3.42887870878438     -0.00152626579140
  C   2.66608839591971      2.42788541457781     -0.00119560547045
  C   2.10119334779106      1.15013640229795     -0.00104940955438
  C   2.90986902103665     -0.03085904190855     -0.00142738825211
  N   4.23481713648934     -0.05060064242242     -0.00199576588575
  H   4.76312197607812      0.80551817578817     -0.00219319622554
  H   4.73546452466575     -0.92342424326849     -0.00224997426750
  C   2.06623721393996     -1.18434017916680     -0.00109600115996
  C   2.59830675018182     -2.47680927819916     -0.00141354621912
  N   3.17911866559339     -3.48476749187474     -0.00170909309968
  C   0.74227157706359     -0.72912847415721     -0.00050429832961
  C   0.76441733831433      0.73600641744665     -0.00049043096064
  C   -0.43208749059693      1.45016461984191     -0.00011051420905
  C   -0.39066545165895      2.86559068654430     -0.00034892639739
  N   -0.38521188824012      4.02627465164879     -0.00071152951216
  C   -1.68808786213818      0.78495458857479      0.00037877669415
  C   -2.83803486146426      1.57684233323172      0.00004397865430
  C   -4.18383406715444      1.23795254090516      0.00041475549962
  C   -4.74481864127434     -0.02221815338784      0.00156179616629
  C   -4.06117985561357     -1.23873687373020      0.00249706168792
  N   -2.77235149330710     -1.49836431398910      0.00198017867515
  C   -1.70904281390744     -0.69262252273118      0.00082965939312
  C   -0.47751277634852     -1.39829868038661      0.00024516399967
  C   -0.51246405177674     -2.81495310475798      0.00056638929554
  N   -0.48066955761678     -3.97416447410474      0.00077995322275
  H   -4.67890133876160     -2.13188934313104      0.00368299371244
  H   -5.82597790562494     -0.08678852707962      0.00186306496736
  H   -4.87071472993041      2.07447685403937     -0.00016044802361
  H   -2.65001520357882      2.64245354871467     -0.00063989141001
