31
Coordinates from ORCA-job ./opt_b97-3c_parallel
  N   -2.90693085126537     -3.10323359063022      0.00234774956226
  C   -2.70914252634466     -1.95787467725757      0.00183831846185
  C   -2.60774357341176     -0.54209339199161      0.00137405848080
  C   -3.88312631005087      0.08296508229713      0.00245892729732
  C   -4.12070441233568      1.46958573853580      0.00198983078255
  C   -3.22405987479886      2.50414442597997      0.00056639716802
  C   -1.83548736149682      2.47985917911567     -0.00075385427059
  C   -0.92970484661433      1.42451702729514     -0.00107556042650
  C   0.42951173872075      1.79778571302431     -0.00251619749712
  C   1.43568154977424      0.86875193857863     -0.00305005416933
  C   1.09207855829046     -0.54769908324640     -0.00216829130342
  C   2.28910568514462     -1.28202129402207     -0.00298591151613
  C   2.46600256682622     -2.66483967337847     -0.00257710030057
  N   2.67335055065957     -3.81141444915795     -0.00256482599172
  C   3.36989276831160     -0.34124835462465     -0.00434689024791
  N   4.66233637095345     -0.66524798795675     -0.00534279510439
  H   4.95117603355972     -1.62739320923829     -0.00542807614251
  H   5.37159343359452      0.04595355490676     -0.00645625743620
  C   2.84459313707370      0.97954810364404     -0.00438571687190
  C   3.61817684506202      2.13818297317921     -0.00558841562047
  N   4.29726418807727      3.08555693145464     -0.00638801386211
  C   -0.23207092393523     -0.94010390287946     -0.00075721438972
  C   -1.28087523629430     -0.01552625489609     -0.00013382262002
  H   -0.45054245368268     -1.99781715608006     -0.00009483680631
  H   0.67191495446521      2.85186861099925     -0.00319035565795
  H   -1.37352688202135      3.45944136347059     -0.00167550896379
  H   -3.66393230305829      3.49350071878177      0.00046821051440
  H   -5.16644642393610      1.75424817501118      0.00298886477695
  N   -4.99384294491647     -0.70309252400034      0.00447661241962
  H   -5.90522178114111     -0.28984161110117      0.00310295483635
  H   -4.93717668590947     -1.70493360761301      0.00327002589858
