31
Coordinates from ORCA-job ./opt_b97-3c_parallel
  N   -2.35733218826564     -3.79109164821669     -0.02884484563447
  C   -2.15386005106683     -2.64650272988114     -0.01199896726775
  C   -2.03142408337773     -1.23288777201192      0.03279580169072
  C   -3.27347459216624     -0.59018984926380      0.30690517777897
  C   -3.51409709260435      0.77818965484676      0.16489693572819
  C   -2.63482000756607      1.78038846160141     -0.15286577315645
  C   -1.24011213118544      1.77326278502428     -0.23868360542421
  C   -0.72353121232611      3.01601945536442     -0.69842352112743
  N   -0.40837584694184      4.03022034612459     -1.16932237457686
  C   -0.33057479932980      0.70917286211581      0.00883686331068
  C   -0.72078054211699     -0.71641595956950     -0.14206015035361
  C   0.29021056558453     -1.65666049095551     -0.39972701472051
  C   1.62848893871636     -1.34680561222276     -0.30307441059520
  C   2.01924340514022      0.01455008620030      0.12313166675358
  C   3.37900490998707      0.04498927586253      0.27241382193938
  C   3.86359931327181     -1.26579710204574     -0.08087913441711
  N   5.15911720260559     -1.60658288307705     -0.06291887064923
  H   5.86649573808352     -0.94210179713040      0.18948690702858
  H   5.46207248374515     -2.52091503850858     -0.34246160113358
  C   2.78729740790822     -2.10695674966086     -0.43097888882887
  H   2.85436130592491     -3.14549814230794     -0.71033095831774
  H   3.98497438774236      0.88497385636306      0.57019582592291
  C   1.02096306227429      1.00021575125228      0.25393623372200
  C   1.46113334890179      2.26708696406559      0.70340391079527
  N   1.92751051217937      3.22841715006036      1.15921070297514
  H   0.01163059184710     -2.68156502604477     -0.59488375762189
  H   -3.08755612637498      2.74469200981727     -0.33949338623222
  H   -4.54675092915964      1.08460417987988      0.28099284812762
  N   -4.33298785755511     -1.36056870000884      0.69537064469804
  H   -5.25221359478731     -0.96331265005879      0.63446062108430
  H   -4.28942235448737     -2.35954272541343      0.59134602360147
