25
Coordinates from ORCA-job ./opt_b97-3c_parallel
  N   2.88228613709661      2.95207132045097      0.15279739699966
  C   2.34678328191106      1.92361656114572      0.07394980978041
  C   1.92638933772064      0.56970862718206     -0.00074741320880
  C   2.97880042672154     -0.37289107453674      0.04532901049734
  C   2.80637838913917     -1.76279200498469     -0.13060415868757
  C   1.64896354377651     -2.48309856751154     -0.24320206920554
  N   0.36818653019482     -2.13328717355091     -0.10886916978720
  C   -0.16213704438337     -0.93735837099144     -0.01943973771240
  C   -1.59324492491482     -0.93829722566499      0.14483808064403
  C   -2.27517950027422     -2.17258581288942      0.27617906414264
  N   -2.86026346335149     -3.16601411027761      0.39568240730500
  C   -2.26502832127651      0.25781722158123      0.10698168696634
  C   -1.48353741765436      1.50183570669861     -0.11605911079008
  N   -0.14941257167647      1.53391372030565     -0.18851833755583
  C   0.51909407792971      0.39141284071710     -0.10842090169863
  C   -2.42611591685149      2.50291561726557     -0.18985314864181
  C   -3.67307824352726      1.84178443156100     -0.00341830217754
  N   -3.59262656745429      0.51261357038149      0.17612568008118
  H   -4.64247815949879      2.32209872503869      0.00481369859059
  H   -2.25902649509445      3.55488839567732     -0.34433090958654
  H   1.77696208697473     -3.54674539433622     -0.41528386353914
  H   3.71814089608294     -2.34683643895789     -0.18247981773567
  N   4.24403851526898      0.06613751721262      0.23118155972696
  H   5.01541460690628     -0.57029396564433      0.17104032496922
  H   4.45447341963476      1.04887823502767      0.25704507652441
