25
Coordinates from ORCA-job ./opt_b97-3c_parallel
  N   -4.61979739825378      0.00413626590023     -0.24920134589261
  C   -3.30912322689190     -0.07616792787367      0.02585683371080
  N   -2.75116369977743      1.10715148269245      0.33438930972038
  C   -1.45030341439606      1.34806845701092      0.33744918737240
  C   -0.32590338177480      0.56889687665240      0.07002614687854
  C   0.94058170259388      1.22224375842381     -0.01493058766778
  N   1.03687294806043      2.58991818372698     -0.04650761843413
  H   1.95454321074786      2.95499755621504     -0.22766266468241
  H   0.31489709908246      3.10190180687610     -0.51939088034439
  C   2.10561536885639      0.45072837433237     -0.01536306492051
  C   2.03361984901377     -0.99797871337411      0.02591600071741
  C   3.36980712701810     -1.43036341915293     -0.01510205856067
  N   4.22030202771122     -0.38740707198710     -0.07411934547832
  C   3.47245044636800      0.74343094616807     -0.08283821476079
  H   3.95915032031099      1.70774909075734     -0.11750038402045
  H   3.73456740764118     -2.44658130764858     -0.01102225198752
  C   0.81024239320159     -1.63723042296022      0.03884349744832
  C   -0.37470230151255     -0.90039707520138      0.03508259021953
  C   -1.55964560254843     -1.65075157867125      0.04468460204091
  N   -2.83827680974241     -1.34003832185301     -0.00000701505562
  H   -1.39553896568721     -2.72575616403695      0.06957625623950
  H   0.75493526721426     -2.71882193084064      0.03910822958055
  H   -1.24158606989628      2.37508013870311      0.62357537206653
  H   -5.13821633177124     -0.83796905230303     -0.41862374988353
  H   -5.08421710746778      0.89074391864385     -0.18086630730627
