28
Coordinates from ORCA-job ./opt_b97-3c_parallel
  N   -2.77145619213716     -3.01942086061239     -0.56099580470732
  C   -2.53748701856875     -1.90301813280889     -0.33609316976376
  C   -2.37218995563564     -0.52120175806728     -0.07945899896467
  C   -3.58531609337176      0.18720226414271     -0.02777286877406
  C   -3.68901527262740      1.57151087007501      0.26199720278892
  C   -2.70456152934024      2.50803072268600      0.35826455709203
  N   -1.38403193301980      2.44136385798780      0.12647884303325
  C   -0.63015015968821      1.37351141716320      0.00632837554814
  C   0.75619832026312      1.69656848250690     -0.16669440068765
  C   1.70650566658168      0.73455188898778     -0.10339256342011
  C   1.32756296473756     -0.65483052317215      0.11271530581674
  C   2.50649076079287     -1.39966605276906      0.18140434984460
  C   2.60269230967793     -2.78091139556984      0.38512876985410
  N   2.66939924313760     -3.92954378385968      0.55655060777117
  C   3.61387370312056     -0.49917484463894      0.00712782819136
  C   3.15153164301573      0.78840780901848     -0.16398698901509
  C   3.90561214558209      1.95220350799238     -0.35718433620828
  N   4.49686509579212      2.94040605387542     -0.51829195903715
  H   4.64910024294595     -0.79850424733030      0.01133641700346
  C   -0.01627440640253     -1.00998008888211      0.18207932317877
  C   -1.02176865445999     -0.06331837717446      0.09176549906624
  H   -0.26927338628924     -2.05726660328573      0.27265244720760
  H   0.99870073141489      2.74482268095011     -0.26247020054805
  H   -3.03528781015526      3.51189993471846      0.60274802379815
  H   -4.69609441562985      1.94319484346550      0.41245659250050
  N   -4.76136750202413     -0.47398774298750     -0.18400442949287
  H   -5.60381330866896      0.04598127850060     -0.34021057126994
  H   -4.77388417304311     -1.44059985561205     -0.45966409940610
