22
Coordinates from ORCA-job ./opt_b97-3c_parallel
  N   3.71594599552240      1.38882869688081     -0.67175642195161
  C   2.72945403779830      0.69057056687709     -0.06149559310366
  N   3.17368294448995     -0.46825481424982      0.53631022078863
  C   2.39846811561616     -1.49248732304784      0.66454223244864
  N   1.18422609260753     -1.76586306467556      0.11896232603704
  C   0.25354500516739     -0.88095655073182     -0.10185304474672
  C   -1.02001337370185     -1.37702354037258     -0.53838860059831
  C   -2.10044879749331     -0.59557210796781     -0.32181997199918
  C   -3.51941882764753     -0.81605340541769     -0.43757885919290
  C   -4.12932464025369      0.28717472673820      0.08060365570569
  C   -3.14603353656716      1.26305202086420      0.53065019285497
  C   -1.90531741414803      0.75345865889563      0.28414224654104
  N   -0.68808213485882      1.32794734434952      0.44224366435245
  C   0.36680596644204      0.59920113594197      0.18980091596460
  N   1.54227681739379      1.23601641854637     -0.01615174879734
  H   -3.36547954628696      2.22211682090233      0.97027612472560
  H   -5.19731475746152      0.43256291841603      0.15402420774988
  H   -3.99099680303336     -1.69699449838535     -0.84051339061403
  H   -1.07749994631417     -2.40746537942058     -0.86368066479177
  H   2.80594707337429     -2.32573338087120      1.22990588723496
  H   3.51686947364754      2.34179597605513     -0.91899153745413
  H   4.66477767560696      1.14577710587297     -0.45175893745396
