28
Coordinates from ORCA-job ./opt_b97-3c_parallel
  N   3.93389163093372      1.76024357351508      0.26748496205523
  C   3.17509562668440      0.62725467270820      0.09650407574845
  N   3.70852813853095     -0.54921627893040     -0.19385207893970
  C   2.66393154984419     -1.43408567941354     -0.38381653274787
  C   1.43667905181998     -0.83010540243569     -0.19731010446191
  C   1.73389220421192      0.55693780070901      0.11119172937379
  C   0.73906604824924      1.47199878898200      0.24521402943125
  C   -0.62344761530527      1.08137288995607      0.11414040389619
  C   -1.53519509699583      2.12267518043053      0.00792497570076
  C   -2.89151234402878      2.08633173172658     -0.32856879706104
  C   -3.68666457980871      0.96854322323094     -0.40501022815375
  N   -3.45129389541717     -0.27413876034770      0.02445175593489
  C   -2.28626616709714     -0.79915882878684      0.34170266896705
  N   -2.37202621570886     -1.90808882712352      1.10347527048512
  H   -1.56670251035682     -2.49929675667058      1.23462158844730
  H   -3.28992274476232     -2.28624772351795      1.26020655594689
  C   -0.93387886861452     -0.34249750285554     -0.00729226900729
  C   0.09357181808704     -1.26037147584009     -0.21113962948170
  N   -0.15181301042544     -2.63358425283788     -0.35164749175783
  H   0.66280098960608     -3.13861490329938     -0.65901759826487
  H   -0.93639215842411     -2.85126894600675     -0.94686279219991
  H   -4.69801569462931      1.10885774127638     -0.77543728727367
  H   -3.36546841525566      3.03113515853706     -0.56247130882238
  H   -1.10885396622623      3.11349863781404      0.11385623910164
  H   0.95627257844319      2.52664065150364      0.36538646104087
  H   2.88978950609670     -2.46155539547922     -0.62804957808658
  H   3.58376646173067      2.42303881320318      0.93888896511511
  H   4.91263260461817      1.55851874685232      0.39859987211404
