29
Coordinates from ORCA-job ./opt_b97-3c_parallel
  N   -5.63731878307658     -0.05805789154166     -0.23787934360760
  C   -4.47888774208955      0.01389139465566     -0.15340705558952
  C   -3.07814259541441      0.13913826346642     -0.05087963094778
  C   -2.60286231047528      1.45716554592702     -0.01150917446729
  C   -1.25130857538744      1.86514327477135      0.08591066028207
  C   -0.06094918167052      1.18674491963951      0.09330448222804
  N   0.99771647899488      2.07130482816819      0.15373699039007
  C   2.19719019031451      1.58369787099231      0.09640691701959
  C   2.49147337701994      0.14697952296994     -0.02696683718973
  C   3.87629574774657      0.07013259365215     -0.07202198380137
  C   4.68134619556075     -1.06458934493379     -0.18719082068875
  N   5.35647096189035     -2.00783004981349     -0.28362177890113
  C   4.32390049446542      1.44679687332080      0.03236752332811
  N   3.35645029049366      2.33408056245985      0.13047403559594
  H   5.36204441739571      1.74951992412277      0.03256995701915
  C   1.43578224402994     -0.74389541111525     -0.05560171603204
  C   0.12729076788824     -0.27193349948213      0.01635418346970
  C   -0.93600260677760     -1.23001873138468      0.06740390511638
  C   -0.52747895603492     -2.58383181786577      0.12993257435837
  N   -0.27234863833222     -3.71707530408273      0.18489234072558
  C   -2.34183526042364     -1.08484484764901      0.04632635835023
  N   -3.09229198339883     -2.20893006768713      0.11023321948323
  H   -4.09365903767944     -2.17097394553700      0.06318135551560
  H   -2.66316907260111     -3.11690820145876      0.10202489562044
  H   1.62977270816987     -1.80461465592374     -0.12196170865799
  H   -1.10258429686558      2.93552281262194      0.14618210630800
  N   -3.49280870702881      2.47410234774867     -0.06116924263382
  H   -4.48002779974148      2.31242406984989     -0.15255163143738
  H   -3.17555786277247      3.42390151860866     -0.09557178435613
