33
Coordinates from ORCA-job ./opt_b97-3c_parallel
  N   -5.39416538532739     -1.44266206462304      0.96666199244150
  C   -4.32795898070088     -1.10753552355298      0.64400361462394
  C   -3.04431217542684     -0.67402835060092      0.25353389602054
  C   -2.26583485838318     -1.61730843051390     -0.48800858232754
  N   -2.92465769244812     -2.64882364896617     -1.04464707759968
  H   -3.91662123009806     -2.75420599957964     -0.92898628175167
  H   -2.41981628990871     -3.42756683091017     -1.43304675407536
  C   -0.86232533180376     -1.58049857477766     -0.57268534507843
  C   -0.28742666882835     -2.67754327939237     -1.24830099925333
  N   0.07138213608835     -3.58704758547955     -1.87880826051867
  C   0.02965033003561     -0.55871002375091     -0.10869354933514
  C   -0.32365817672340      0.85264515915989     -0.26051978943116
  C   -1.56221198657735      1.37139742351274      0.07596259370055
  C   -1.74017364629918      2.77752103912349      0.16098399694538
  N   -2.02859143183485      3.88106719844233      0.38003681057928
  C   -2.72301747233341      0.64818718456498      0.58140537243471
  N   -3.58128143175334      1.34678169405845      1.34171728269948
  H   -4.45815873134351      0.94574179589639      1.62694507732904
  H   -3.45709275340313      2.33314333082915      1.49093972804877
  C   0.75276754119932      1.76576733897066     -0.63657840402461
  C   0.51160834467849      2.99790869575445     -1.28362518927672
  N   0.35526060149650      3.95894358671482     -1.91483239359102
  C   2.03823221200321      1.39917244981794     -0.35127518251102
  N   3.17039845467688      2.18072121944020     -0.48188371650742
  C   4.13960758303008      1.44305587714465     -0.00016639582959
  C   3.70619164290607      0.12375266056264      0.45972879385758
  C   4.55073630575050     -0.85135244633588      0.99687034703115
  N   5.30220412479514     -1.61731503215705      1.44477047468662
  C   2.34584799159420      0.09209953306549      0.21606966980116
  C   1.33706231281625     -0.89202563856273      0.25883254776748
  C   1.65470341869118     -2.20965017176545      0.65964652654205
  N   1.91365314789271     -3.26888652187268      1.05724177704460
  H   5.15894658554294      1.79958622578290      0.04012461015640
