26
Coordinates from ORCA-job ./opt_b97-3c_parallel
  N   -2.74756397138922     -2.98250956955566      0.41628534567240
  C   -2.43837918176602     -1.87696821938009      0.23815837486383
  C   -2.29008603865284     -0.47695046487756      0.06251508081219
  C   -3.50214930217870      0.25650263970205      0.12163296236522
  N   -4.64067534114975     -0.39051144958288      0.43975494625493
  H   -5.52257704397752      0.08498863301118      0.41378871610397
  H   -4.65365799543700     -1.38583312316977      0.58381988935819
  C   -3.60685750546452      1.62286422196831     -0.21551890708596
  C   -2.60957982023476      2.52841958921415     -0.46468822844401
  N   -1.29078086571649      2.46161718575376     -0.28309897119688
  C   -0.54283679496476      1.40301532538784     -0.08678832780404
  N   0.77385558606153      1.71159685907713      0.13252396284826
  C   1.61777860921765      0.72487086697887      0.11455062754372
  C   1.21073359464669     -0.67625447443357     -0.16652472190913
  N   -0.06668639340061     -1.01281445133533     -0.24124286053589
  C   -0.96322965909421     -0.02621311478130     -0.14051904359557
  C   2.36984018156177     -1.44232475696711     -0.23877641847952
  C   2.47098972377840     -2.81427302592279     -0.49787655381062
  N   2.57142168543173     -3.95211802992077     -0.71260249376445
  C   3.47359852564568     -0.56212483456509      0.02619848029842
  C   3.04549238820721      0.73800595248642      0.25157483945086
  C   3.84591264115449      1.85500488996719      0.52501349250163
  N   4.50838302995490      2.78163043046161      0.75291857287700
  H   4.50306242526231     -0.88188823252813      0.04443800824362
  H   -2.94177312933388      3.51060486701655     -0.78475703257151
  H   -4.61516671156409      2.01166887179450     -0.29819633869828
