27
Coordinates from ORCA-job ./opt_b97-3c_parallel
  N   -4.48071617719857     -2.47617775517476      0.70810606430639
  C   -3.76574819979208     -1.58280235905054      0.48476811353890
  C   -2.96501314324398     -0.47791045390836      0.20674015825626
  C   -1.56188947766704     -0.38511118428620      0.16762138646258
  C   -1.21907355764015      1.01356916499408     -0.19810161461684
  C   -2.38633737707186      1.71539974230042     -0.38559643776182
  C   -3.46692291215830      0.81364963721593     -0.13701882831957
  N   -4.76115144742706      1.11684336228732     -0.21298283788832
  H   -5.06951997035975      2.03948724192758     -0.45716455050874
  H   -5.46206116824738      0.42256814413655     -0.01681739909134
  H   -2.47448086871390      2.75483534914122     -0.65412478407844
  N   0.04165934386549      1.45819655598742     -0.27252074972327
  C   1.02679559407617      0.59776965948599     -0.07747502412026
  C   2.31255102361890      1.15604737109819      0.13326490772949
  C   2.39760946067702      2.57244401313356      0.18812790829792
  N   2.56065634915506      3.72039300230107      0.24537586151498
  C   3.52023971931893      0.48590238475112      0.39705409765087
  N   3.85853483897423     -0.77405733175013      0.26437457029390
  C   3.00802647318372     -1.74302115052097     -0.11467944820888
  N   3.60107057219391     -2.84450298506539     -0.61926536515420
  H   4.60120387818826     -2.91335694045043     -0.57143667890421
  H   3.05421947439536     -3.67847773090754     -0.73043369163502
  N   1.68370997267688     -1.83737482298351      0.02734855426571
  C   0.78535152314160     -0.87285391521567      0.10367167182578
  C   -0.54655958547010     -1.28915991593334      0.30825606528791
  H   -0.72612762800861     -2.34066379762384      0.48102091419885
  H   4.32990430283326      1.12449100921025      0.73432986248138
