25
Coordinates from ORCA-job ./opt_b97-3c_parallel
  N   -3.74889096779445     -2.23365073453398     -0.10817687355237
  C   -2.87495569897457     -1.18323688627656     -0.05158893775732
  N   -3.47651146872086      0.00031478926617     -0.03074473482039
  C   -2.87485015348124      1.18386642690185     -0.04868573184116
  N   -3.74868079716974      2.23447496998019     -0.10263600074703
  H   -3.43383024476367      3.15238459964691      0.15116697215145
  H   -4.71156763944741      2.01874049116856      0.08423894170365
  C   -1.50778571566007      1.52056302767581     -0.04351013315797
  C   -0.36415042916937      0.74378749268880     -0.01280634195120
  N   0.79065546402223      1.45855065578418      0.00814115239503
  C   1.89635715978586      0.74654941789230      0.02711213773038
  N   3.15808038293212      1.17738883163192      0.05431895484872
  C   3.84991905465146     -0.00013333310939      0.06651849262644
  N   5.17956595348779     -0.00023041134388      0.09406108685187
  H   5.67707672451323      0.87060634100271      0.09812586977025
  H   5.67699007056089     -0.87112372192009      0.09611363410625
  N   3.15796928395509     -1.17756281562667      0.05159208371522
  C   1.89628864560278     -0.74654413068657      0.02537784768979
  N   0.79051945530262     -1.45839733169158      0.00473184999787
  C   -0.36421811544637     -0.74348223168226     -0.01456061426577
  C   -1.50792667036730     -1.52007414282501     -0.04722270035738
  H   -1.28452227840158     -2.57959281382876     -0.06543276831030
  H   -1.28427986090677      2.58010140486625     -0.05915156718878
  H   -4.71172134949610     -2.01824228112906      0.07939773543833
  H   -3.43412141281457     -3.15213252315188      0.14367629812441
