30
Coordinates from ORCA-job ./opt_b97-3c_parallel
  N   4.89658984272074      0.40627984483063      0.32079164425186
  C   3.59901098782455      0.27505760423705     -0.01781324648932
  N   3.23547386997715     -0.99771988923919     -0.25758550101957
  C   1.97810983340110     -1.41647127772590     -0.27907880519048
  C   0.74467014387682     -0.80714273539015     -0.05653179637366
  C   -0.39373602284910     -1.65301286754054      0.00722149960609
  N   -0.26603781500099     -3.02991430177560      0.04878585874239
  H   -1.12980106476465     -3.51491946851763      0.21669371814569
  H   0.47405045958206     -3.38928148760833      0.62557904137295
  C   -1.66981885442591     -1.08929704310304     -0.02629784842330
  C   -1.84094036901746      0.34730839993694     -0.08082578209374
  C   -3.22723132752237      0.60538436309067     -0.05578982469624
  N   -3.80180444458391      1.89888349327506     -0.07549897368511
  H   -3.70856769390408      2.34035804885863     -0.98216732582225
  H   -4.78534493382814      1.86657453630792      0.15091275538266
  C   -3.89289904326641     -0.62602189577229      0.03658908319399
  C   -2.94973841539237     -1.66091906031149      0.07330690662839
  H   -3.19371758883612     -2.71076944140209      0.13422299144883
  H   -4.96596816154945     -0.75160565832138      0.06617435496705
  C   -0.74851272273121      1.20933079894284      0.01919519212385
  N   -0.98266530610353      2.56191818992049      0.13426717252796
  H   -1.94087088209068      2.78070028845323      0.38010653837100
  H   -0.31442558255451      3.08528580019686      0.67113080856556
  C   0.56824858953529      0.66310513390486     -0.02286885038070
  C   1.62357461939696      1.55593026621058     -0.15536619595554
  N   2.94729979476997      1.44063174223082     -0.12295205293618
  H   1.33220912866043      2.58684285022641     -0.32853649433290
  H   1.92161341516512     -2.47070982357773     -0.53169855500731
  H   5.49198203241709     -0.39916112313698      0.26727072951864
  H   5.29190511149307      1.32699814349934      0.36799802125921
