29
Coordinates from ORCA-job ./opt_b97-3c_parallel
  N   5.67212543786458      0.57182338701547      0.01495261378143
  C   4.51937350774500      0.41373327248831      0.01355423750274
  C   3.12358802580041      0.20759518908848      0.00888951529886
  C   2.31796088383975      1.38047073269818      0.02982846026022
  N   2.97437777991316      2.58414347602867      0.12059776205020
  H   3.94903633416678      2.62863443483902     -0.12188762909457
  H   2.45434718797571      3.41176222742929     -0.10709696409681
  C   0.92814069797932      1.43684517456669      0.02118009756479
  C   -0.08251853981322      0.47524371964789      0.00726738865486
  C   -1.40011389323976      0.95102544767104      0.00690969383266
  C   -2.47017229360937      0.08242288005822      0.00183949926973
  C   -2.24512601735992     -1.36583311323739     -0.00393668618347
  N   -3.42780489339649     -2.05582034608177     -0.00740139387055
  C   -4.36945440825364     -1.11547935799828     -0.00416583310795
  C   -3.86528204863967      0.22368891176295      0.00172236278422
  C   -4.59715776573548      1.41312962865067      0.00475357625793
  N   -5.19263840060015      2.41370301849547      0.00671783378400
  H   -5.41755593792093     -1.38024550688202     -0.00609093661690
  C   -0.97406596272516     -1.86062448447248     -0.00545707815472
  C   0.14716832788636     -0.98991681206899     -0.00346683146506
  C   1.37943176491519     -1.60726182214825     -0.01792912270400
  C   2.70720844214318     -1.13661693450446     -0.02430367316739
  N   3.66619595966483     -2.10769320905149     -0.10800957469781
  H   4.62879863319204     -1.87625502828457      0.06564781835276
  H   3.40829796770748     -3.05352995331068      0.10329598074961
  H   1.31699550406856     -2.68956020335503     -0.04252383190020
  H   -0.81648515308779     -2.93046897126451     -0.01283323264125
  H   -1.57063462390183      2.01971574525730      0.01450013379092
  H   0.54338827622099      2.45076465476226      0.04192741646576
