25
Coordinates from ORCA-job ./opt_b97-3c_parallel
  N   4.56856251543147      2.08020455671859     -0.54947124893337
  C   3.73503259607325      1.28534589162823     -0.37331795532234
  C   2.79239748848008      0.28225831526443     -0.15619097631069
  C   1.39964071543553      0.37471510936923     -0.08354838480802
  C   0.87883764675782     -0.99097539134657      0.18768399363084
  N   -0.42626000684231     -1.26608355213532      0.27205299841315
  C   -1.28712736487626     -0.26636428335435      0.15713630503418
  C   -2.63509131870638     -0.63657173901286     -0.07073282396474
  C   -2.90387295886769     -2.02610787976715     -0.20267736997318
  N   -3.21997053430889     -3.13636860325444     -0.32158289809048
  C   -3.74530077222584      0.20043152176609     -0.28955764391269
  N   -3.90772560382686      1.48441336633186     -0.04791440269767
  C   -2.94132484350356      2.31330532300181      0.34724357867918
  N   -1.62928531363630      2.23493881165852      0.26473876443865
  C   -0.85415983232646      1.16673384130547      0.07874468212490
  C   0.50954754343476      1.42056241517088     -0.11151819176078
  H   0.82764193680893      2.44995418283277     -0.19480603030798
  H   -3.30462067659614      3.26979576488898      0.70812994486848
  H   -4.63123677644945     -0.30080696179841     -0.66478354080511
  C   1.94471947994645     -1.85841102623611      0.28742225683559
  C   3.12650109048980     -1.09711702899340      0.07546559426095
  N   4.37278762993551     -1.56110547808380      0.08671433355084
  H   5.15142973175824     -0.94463546049319     -0.07436247680969
  H   4.56987141174297     -2.53014774248599      0.25656635390348
  H   1.89298825966967     -2.91735990486901      0.47672053715593
