28
Coordinates from ORCA-job ./opt_b97-3c_parallel
  N   -2.16353919527083     -3.66013295820426     -0.00038641228806
  C   -1.89316923139622     -2.52781012011249     -0.00021936021004
  C   -1.66475365611448     -1.13486539453444     -0.00011512638122
  C   -2.86230362748136     -0.37721334452753     -0.00059214894486
  N   -3.03984033751776      0.95298682695289     -0.00017870228564
  C   -2.11880608938023      1.88081175490034      0.00036329681952
  N   -2.58498990359844      3.15282009797750      0.00159471993352
  H   -1.97486346913185      3.94736123316727      0.00005549128450
  H   -3.57740508136028      3.30143618486467      0.00040996067577
  C   -0.69076715999496      1.77527813528607     -0.00000202790350
  C   0.13618584917281      0.69360004321823     -0.00017548959255
  C   1.56408788012258      1.00252247262938     -0.00051544129426
  C   1.99390669221649      2.34951718624823     -0.00121495907230
  N   2.29471834147724      3.47112706366025     -0.00163770913399
  C   2.48807395597653     -0.00561684330785     -0.00012145637161
  C   2.04496416162207     -1.40826633798518      0.00056359423710
  C   3.21165484880886     -2.14265981038702      0.00090032592644
  C   4.26260666575083     -1.17377967914755      0.00032600671408
  N   3.85166811741057      0.09477304583163     -0.00032194590024
  H   5.32164034342202     -1.39648805757819      0.00034546633417
  H   3.32198022750501     -3.21432151129956      0.00142303269531
  C   0.68600059079514     -1.70770587015682      0.00062732432430
  C   -0.28774276068611     -0.72144428789574      0.00016307082282
  H   0.38413037963075     -2.74490362944083      0.00096756087803
  H   -0.19091817472595      2.73463241968876      0.00000108979899
  N   -4.04632860870477     -1.03563600664495     -0.00159888385409
  H   -4.11112139989066     -2.03643685482968     -0.00166836341470
  H   -4.88274437065703     -0.48418832727317     -0.00127957119744
