32
Coordinates from ORCA-job ./opt_b97-3c_parallel
  N   6.11795294516353      0.31023884253086     -0.00143749760212
  C   4.96258530558339      0.16586484430777     -0.00140980066292
  C   3.56548841632108     -0.01011396108425     -0.00121069448228
  C   3.10095371086986     -1.34944090641830     -0.00202490168676
  C   1.77111771648782     -1.77958424280442     -0.00099011658899
  C   0.54146498350021     -1.13225552889067      0.00049174322848
  N   -0.50107007113418     -1.99067763061088      0.00125377556008
  C   -1.73273903208760     -1.51048546908540      0.00234595763416
  C   -2.92960539499767     -2.21753464109604      0.00329589023914
  C   -3.97051490674011     -1.27201480607549      0.00421334554350
  N   -5.28133373170408     -1.51605927025867      0.00528404770588
  H   -5.94067512022726     -0.75632842217649      0.00591023461842
  H   -5.64023877089076     -2.45221159763846      0.00557073080535
  C   -3.43103348745095      0.07294612590789      0.00384116961165
  C   -4.25154163755127      1.19923500818302      0.00462424442713
  N   -5.03686707635671      2.06068278910066      0.00537293584914
  C   -2.04498640245710     -0.05672445300632      0.00270955896555
  C   -0.98196754221948      0.83076782358171      0.00198031524302
  C   -1.21103873762341      2.22465237338012      0.00239939465879
  N   -1.35487898111955      3.37757878580156      0.00268719660984
  C   0.36209855622741      0.33286179918299      0.00096186450825
  C   1.38411090017159      1.26079992511263      0.00056020614080
  C   2.78537427569033      1.16909355782956     -0.00013122881885
  N   3.44286898231554      2.35740847163000      0.00053831209936
  H   4.44470737021197      2.41037377431068     -0.00100163111090
  H   2.93295668637402      3.21953499008791      0.00051331005468
  H   1.03794270821902      2.28701899923221      0.00114545653415
  H   -3.03416511354601     -3.28919993752668      0.00330600631932
  H   1.64364599491012     -2.85508593001574     -0.00178451050587
  N   4.03838113090427     -2.33379068978885     -0.00562215831001
  H   3.76080384996530     -3.29553385161493      0.00275882130914
  H   5.02105304449066     -2.13269072048793      0.00184270820287
