26
Coordinates from ORCA-job ./opt_b97-3c_parallel
  N   -2.54216336063037     -3.36865735384153     -0.17173913520581
  C   -2.15161181859810     -2.27495531556118     -0.13204021824866
  C   -1.89340287305864     -0.88297581088970     -0.04638168058104
  C   -3.06435301787295     -0.06355360086060      0.12757883962159
  N   -3.18098262273499      1.25148506839829      0.01916527477696
  C   -2.22524349006200      2.16058583035692     -0.07006241322163
  N   -2.67307398849722      3.42686697671978     -0.24636134452095
  H   -3.65673391309096      3.56908755923483     -0.38666709816279
  H   -2.04597701869027      4.17868711874279     -0.46040850952517
  C   -0.82396405414850      2.01110416114125      0.06538896038447
  C   -0.04481704636559      0.87929456532546      0.06486592098694
  N   1.29144409182710      1.13649538005503      0.17866325598910
  C   2.08687058885037      0.10500874646031      0.06574119988585
  C   1.58498615121178     -1.27924784815464     -0.20369125093614
  N   2.59582426193980     -2.14952587549383     -0.33384826372351
  C   3.70852698525052     -1.40264083406052     -0.14991673189523
  C   3.48736480643101     -0.02745099342667      0.09998027018148
  C   4.44844361211548      0.96611156756787      0.31251161849055
  N   5.25031735128152      1.78966988890639      0.48706477537994
  H   4.68292962207281     -1.86753079730678     -0.19969054928797
  N   0.30074432655659     -1.54582405643014     -0.27077477285678
  C   -0.54584704999846     -0.50612800231268     -0.10500408108266
  H   -0.24785039623807      2.92352121297400      0.15381191275941
  N   -4.22660924799278     -0.69481193944582      0.38430188149263
  H   -4.29857238585769     -1.69671026235416      0.38471175060655
  H   -5.06542267500013     -0.14425809844436      0.38649572329299
