28
Coordinates from ORCA-job ./opt_b97-3c_parallel
  N   -2.61286146199393     -4.03589462413987     -0.81306739084866
  C   -2.28104736305787     -2.94382229535625     -0.58550024468196
  C   -1.99427335670571     -1.60811766453374     -0.30279825413986
  C   -0.75246315675744     -0.97035816263684     -0.19619475104807
  N   0.44417610096808     -1.51967361824850     -0.29154379389148
  C   1.50964993829880     -0.72361839816898     -0.13734594346453
  N   2.64033363034574     -1.34276316365145      0.14013765576146
  C   3.88147347726054     -0.87855697263520      0.20914911160648
  N   4.75365134026201     -1.70166556910054      0.82539104159422
  H   5.70461984443335     -1.43683479716379      0.99644127959369
  H   4.42007625165089     -2.58201449921867      1.17540117138940
  C   4.37519722071782      0.30237022387940     -0.39843346122000
  C   3.59885589570124      1.37242317346142     -0.75687398090155
  N   2.31501070071896      1.62315407524788     -0.49987877648128
  C   1.37213810999634      0.77463996670891     -0.15501679595594
  C   0.08670246141865      1.31454795384488      0.13534703563866
  C   -0.05922569037696      2.71306313956189      0.28014403718879
  N   -0.19593668977459      3.85705709288599      0.41510072101941
  C   -1.00122960376346      0.45661183557348      0.13906798320939
  C   -2.38038259904797      0.63467271514555      0.27256868068233
  C   -3.13493700866250      1.76940746720284      0.57586151706723
  N   -3.86901889864384      2.63801968298531      0.82471112316003
  C   -2.99514296573021     -0.63074581301306     -0.00745008915005
  N   -4.29888623580618     -0.85509702536010      0.00635957548133
  H   -4.94507709328938     -0.11538742827420      0.22648921461698
  H   -4.66743818953325     -1.76676933175029     -0.20621618318727
  H   4.10453366567557      2.19505403139910     -1.25227512062221
  H   5.44190093789455      0.37736905655173     -0.57190207841719
