24
Coordinates from ORCA-job ./opt_b97-3c_parallel
  N   -3.60754138744373     -1.77729660816287      0.12724331231913
  C   -2.91697496121439     -0.59300174506819      0.04968296716797
  N   -3.59108712262658      0.58895633034982      0.04522782958495
  C   -2.68997798280309      1.58445250428409      0.02878087010315
  C   -1.37597958361673      1.08202035130980      0.01776833598475
  C   -1.52803982641015     -0.38302356694960      0.04019006166532
  C   -0.41176634681353     -1.18475847127224      0.05043914411252
  C   0.88149854460908     -0.64189302551224      0.02902988359680
  C   1.93382112397612     -1.56973745781310      0.04622377825114
  N   3.25590110244119     -1.49522067544111      0.02687616287179
  C   3.94999541243844     -0.34635129782236     -0.01209988890926
  C   3.55510385310157      0.97272298244537     -0.03372602883651
  C   2.25038453251025      1.48765521850332     -0.02852838730783
  C   1.03401688541510      0.83674046251005     -0.00353064946403
  C   -0.12790677953025      1.64080581280450     -0.00397386286513
  H   -0.00783390166658      2.71724722914376     -0.02161304547503
  H   2.18747104830915      2.57047022720547     -0.04889906642905
  H   4.35588879010529      1.70066700349000     -0.05999148788706
  H   5.02481038366418     -0.50955852531701     -0.02717604890722
  H   1.58634983476252     -2.60158593231368      0.08146171330936
  H   -0.50730766523035     -2.26404679023732      0.08467945650395
  H   -3.00476823533430      2.61648568137992      0.01785553611353
  H   -4.58023825092419     -1.68353802476908     -0.11737855974287
  H   -3.17178293351900     -2.57173987564725     -0.30976220926046
