29
Coordinates from ORCA-job ./opt_b97-3c_parallel
  N   4.88550897822817     -0.01971754448979     -0.06384423220041
  C   3.52391963042031     -0.00745931562536     -0.02444493709993
  C   2.88156109146910      1.17729743778776     -0.42159093312472
  C   1.53913695477083      1.48451332461988     -0.34015619730894
  C   0.39928509275881      0.73782981070471     -0.03959673343381
  C   -0.82276025432690      1.43709096833391      0.09800914710309
  N   -0.84985824413306      2.82348360819313      0.14757044095640
  H   -0.18093782326479      3.24861083760756      0.76676645276824
  H   -1.76906280804669      3.20465353194051      0.29052984008735
  C   -2.02043038096385      0.71886343534527      0.09383513532945
  C   -2.02408691809207     -0.71741644102719     -0.08449021394138
  C   -3.37950882044712     -1.07679008883514     -0.12384913018452
  N   -4.17780974122567      0.00402642262967      0.01948041138140
  C   -3.37323191073505      1.08273147407305      0.15155013936541
  H   -3.80468952723770      2.06745070591390      0.26224902523447
  H   -3.81555862569963     -2.06016248305034     -0.22856498332411
  C   -0.82971783441459     -1.43952470767789     -0.10638081118359
  N   -0.86116476141718     -2.82540084205087     -0.15805282897369
  H   -0.20082364081065     -3.25151653140636     -0.78571917363262
  H   -1.78300605564684     -3.20428357608671     -0.28968337314863
  C   0.39724443137765     -0.74395829583382      0.01670934276959
  C   1.53689950971459     -1.49463765575419      0.30285339354193
  C   2.88143526654856     -1.18994628823639      0.37521049779689
  H   3.53057061665537     -1.99688131436819      0.69504273443711
  H   1.32407659028471     -2.52693098566790      0.55804483830970
  H   1.32661755733327      2.51707341133173     -0.59463995814088
  H   3.53006502794820      1.97768066656601     -0.75833075584829
  H   5.38274351185966      0.84913519418156     -0.13291252913707
  H   5.38191642489260     -0.77208999641849      0.37709092510156
