30
Coordinates from ORCA-job ./opt_b97-3c_parallel
  N   -2.07083044323555     -3.62179469784192      0.22850446044994
  C   -2.01786720159855     -2.46126318290420      0.15937750914238
  C   -2.04693423158364     -1.05222072819474      0.08875468083943
  C   -3.34828871043615     -0.50344935281746      0.17396385921208
  N   -3.75036976496090      0.74967895833393     -0.09501452820672
  C   -3.02064294751165      1.82854386006046     -0.17096982856310
  N   -3.68913580231672      2.97046094831019     -0.48345402308230
  H   -4.64604250943251      2.87548343255746     -0.77539967133991
  H   -3.19230323547281      3.78299353300259     -0.79764762034558
  C   -1.62410219573649      1.99814529581693      0.10282199688460
  C   -0.62474518524804      1.07027949877953      0.14485735351964
  C   0.69958535964072      1.62060954300535      0.28205715741229
  C   1.78819448697470      0.83601786948949      0.14264919855932
  C   1.63418233222058     -0.58849460982285     -0.11630362589338
  C   2.91970093153560     -1.12573606842372     -0.23576210497817
  C   3.23902243181502     -2.46397495120336     -0.49017678308345
  N   3.49536571587284     -3.57857221754586     -0.70380352077364
  C   3.86869635183669     -0.06130047637356     -0.05418025751350
  C   3.20861603755233      1.12640508326194      0.17362468067674
  C   3.75403399108203      2.39644103074907      0.38835405177270
  N   4.15287955534812      3.47453145590681      0.56846897500056
  H   4.93834555757036     -0.18674019308685     -0.09396266150704
  C   0.36524860671763     -1.15340917525817     -0.17323705183670
  C   -0.78006869610578     -0.38744192242459     -0.01582579114839
  H   0.27874587660173     -2.22214446752983     -0.30869740923108
  H   0.80137275990605      2.68618592529729      0.43923298346457
  H   -1.31444487670151      3.02879469783422      0.22818553138544
  N   -4.38350153591704     -1.31405650980011      0.50464655040598
  H   -4.26381922206595     -2.30969922468214      0.56344095449228
  H   -5.30661403735111     -0.95982754349590      0.33412940878500
