30
Coordinates from ORCA-job ./opt_b97-3c_parallel
  N   -5.45060078481666     -0.84577960436930      0.45934208287032
  C   -4.31355490476842     -0.65527594182979      0.30323841835937
  C   -2.93885314688636     -0.40152858015221      0.11047193102423
  C   -2.59173910800170      0.95926258999812      0.09616934499012
  C   -1.27073744687481      1.49020805564721     -0.13212945637031
  C   -1.23222288313765      2.90679862890198     -0.27597005477830
  N   -1.43052228614115      4.04828097724102     -0.36323365568627
  C   -0.02797499171519      0.86749893464594     -0.16155038693979
  N   0.96608204515430      1.80028166305517     -0.29905234020730
  C   2.19986190223808      1.41138389178590     -0.18735553543584
  C   2.58709552354807      0.01651771013433      0.07761387958227
  C   3.97160076207123      0.04314533459600      0.16151612460069
  C   4.84954463946794     -1.01489775985588      0.40045133893767
  N   5.58417937018352     -1.89537614837367      0.60008587106461
  C   4.32504192140736      1.43390338983218     -0.06814091660621
  N   3.30008117585789      2.23597495167739     -0.27228197049181
  H   5.33871689521153      1.80996619425513     -0.07740797003395
  C   1.59265774995126     -0.93910327656319      0.13264242894729
  C   0.25713150880891     -0.56649945087898     -0.01536847799065
  C   -0.71906457888840     -1.60386822887263     -0.12859058276255
  C   -0.20438609954804     -2.91461259917849     -0.26160418719636
  N   0.14240194917923     -4.01818160035473     -0.38113249538956
  C   -2.13014976130019     -1.55944780361183     -0.11064792297778
  N   -2.79878341091464     -2.72251236923358     -0.27297582601171
  H   -3.79969121169248     -2.76121372226472     -0.21009672896108
  H   -2.30656800451044     -3.59748264204797     -0.31262316660848
  H   1.85130949094790     -1.97970362208220      0.26410297427156
  N   -3.56489698540605      1.86533980915442      0.29394963604829
  H   -3.36741133236339      2.85030994750744      0.24634061942859
  H   -4.52383293876193      1.58493116133736      0.40057646932298
