28
Coordinates from ORCA-job ./opt_b97-3c_parallel
  N   -4.70604950289646     -2.05068098312467     -1.39432991716869
  C   -3.93236678251299     -1.28625731714834     -0.97586747977996
  C   -3.10138960247831     -0.29684913481840     -0.45659340398765
  C   -1.72268122728291     -0.28705715656829     -0.24818881417895
  C   -1.37231618427089      1.03493812706163      0.37226530441539
  C   -2.53575742531188      1.74615477037120      0.58256690274443
  C   -3.59523674386862      0.95436028264700      0.07151253229681
  N   -4.88281181303851      1.27959178152969      0.05726940604089
  H   -5.20886383901720      2.14744628441445      0.44124456611747
  H   -5.56406876746031      0.64840852414539     -0.33091298360998
  H   -2.62426927197647      2.73491982737197      1.00040912734018
  N   -0.10578688876733      1.38463840828446      0.55424060863325
  C   0.81909615982467      0.47091916371164      0.23207592278490
  C   2.12113340704791      0.95103161279931      0.04645174688811
  C   2.30414661427759      2.35173526940342      0.12047872542547
  N   2.58988775199227      3.47868377035304      0.13421169846526
  C   3.28755883881961      0.18758169993172     -0.32026761987937
  N   3.49173309255406     -1.10200755481161     -0.12738303187806
  C   2.55854183689835     -1.96989560628112      0.26652427361822
  N   3.02776648089760     -3.07968533376253      0.87554651588403
  H   2.40991451816137     -3.86634345977345      0.96029772481618
  H   4.01885740785986     -3.23632377120190      0.88806113823322
  N   1.24205390068754     -1.97865350289586      0.04694792858427
  C   0.43847468827222     -0.94683434006074     -0.07597058666005
  N   -0.82941430048138     -1.23857944128145     -0.42688235749302
  N   4.32259851305087      0.85637334389167     -0.86517847356027
  H   4.32202892831737      1.85865157948510     -0.92793847793004
  H   5.19320946480400      0.36713008962079     -0.96402666966613
