30
Coordinates from ORCA-job ./opt_b97-3c_parallel
  N   -3.02109926256012     -3.53630315759654     -0.01824238632363
  C   -2.64522677850821     -2.43664426087305     -0.00292580987979
  C   -2.46090609116740     -1.02669974827129     -0.04157710172302
  C   -3.65869871102867     -0.29478069422805     -0.29376047879815
  C   -3.77452802253205      1.09655072719947     -0.19030225652809
  C   -2.81002345931227      2.02240494945159      0.10797070852763
  C   -1.42219844182064      1.90317003345157      0.23412667399764
  C   -0.81902441384602      3.10608527652923      0.69318049359741
  N   -0.44223228097193      4.09711419739350      1.16715266665644
  C   -0.60370333009534      0.76238524393464      0.02096329694788
  C   -1.12156873429983     -0.61002932913527      0.10984215739286
  N   -0.30806606313907     -1.67203447218476      0.30241635859485
  C   0.99171971142443     -1.50040305054275      0.26621542624371
  C   1.61842103543519     -0.20041457571081     -0.04745791568382
  C   2.97483431141474     -0.45700947531252     -0.11965983127975
  C   4.07909491294256      0.35421302109493     -0.37920922937082
  N   5.07520810328263      0.92357923580948     -0.57594226312611
  C   3.08403504470630     -1.87634691905498      0.20253243001944
  N   1.90262940518918     -2.47684133808312      0.42132395852599
  N   4.23133880507278     -2.53350323062201      0.27685576398469
  H   5.10733909926709     -2.07112016411854      0.10501929377858
  H   4.22705125155682     -3.51189100846259      0.50722707432629
  C   0.78978561932016      0.91560947324278     -0.17281075626306
  C   1.37147954944393      2.13920094951163     -0.57837824991853
  N   1.90434392430288      3.07818239811017     -1.00469133570357
  H   -3.17999585037646      3.02744270062249      0.25918492084916
  H   -4.77550006957632      1.49171047202398     -0.31217926994306
  N   -4.77542178647525     -0.98832306498403     -0.60183593236114
  H   -4.78614173040265     -1.99365463325119     -0.57532683357534
  H   -5.65802184094658     -0.51834077234405     -0.67153537936468
