27
Coordinates from ORCA-job ./opt_b97-3c_parallel
  N   -1.89777657920061     -3.29274378983065     -0.01245821374072
  C   -1.85589336646112     -2.13145058574657      0.00067104408299
  C   -2.06998730485031     -0.72567972970338      0.01197833286828
  C   -3.43766665721794     -0.35583898141131      0.02295722022091
  N   -4.37100702751543     -1.33885381736306      0.07038288293192
  H   -4.10501998047082     -2.30448290386741     -0.01774342113573
  H   -5.33867863588187     -1.11535610465981     -0.06143307583807
  C   -3.92810434592995      0.96561226181844      0.00943002958003
  C   -3.23517831686456      2.14546074057648     -0.00315574368936
  C   -1.86633589955660      2.38929558949168     -0.00243846515808
  C   -0.78483240279409      1.51772387409095      0.00740983001348
  N   0.41986738222172      2.15198142001237      0.00907423174296
  C   1.48845894179829      1.39385825366847      0.00645499925937
  C   1.39152490182812     -0.08488579775884     -0.00164096883087
  C   2.70257957768628     -0.53862939297740     -0.00633743815591
  C   3.23605900095431     -1.82590391222777     -0.01466747991061
  N   3.76842648025273     -2.86142973268187     -0.02177899199156
  C   3.49287638672017      0.67944317099707      0.00018103428354
  N   4.82044148517176      0.70560914091133     -0.00126144453355
  H   5.29560651663854      1.59061770265777      0.00398105013092
  H   5.35676561414323     -0.14368966982032     -0.00703741419937
  N   2.76674267957486      1.81366652727791      0.00804008240382
  N   0.22862049334723     -0.71511506011290      0.00015571638651
  C   -0.87704297148725      0.04656014255632      0.00703772441826
  H   -1.56416213285793      3.42798285319844     -0.00825525596232
  H   -3.85187244201421      3.03558564830146     -0.01340040720812
  H   -5.00822487903373      1.05284240280286      0.01693157003077
