30
Coordinates from ORCA-job ./opt_b97-3c_parallel
  N   4.35731540727042      2.35313703011270     -0.82815162315641
  C   3.74125564819964      1.40313700665580     -0.54720058955564
  C   3.08507930302265      0.22655183756035     -0.20052497427618
  C   1.71599249444634     -0.04302187977831     -0.12345991153825
  C   1.56512310208035     -1.45635369503277      0.29660589594513
  C   2.83393013328791     -2.00289576562922      0.46292365430073
  C   3.76985941062826     -0.99289435228764      0.16511554445505
  N   5.10013401079809     -1.09243672423791      0.19735005806032
  H   5.55599682890511     -1.94797025397039      0.45346649649446
  H   5.67657708273000     -0.30084775105602     -0.03103478627797
  H   3.06940218005351     -3.01277099415879      0.75647851436548
  C   0.29552179027363     -1.99405615362289      0.38536760605633
  C   -0.84304090407289     -1.23582244989461      0.10075916260819
  N   -1.96920835958586     -1.92647505425336     -0.04096524806745
  C   -3.19981068104158     -1.47003878256430     -0.25362178995310
  N   -3.77439467492703     -0.30660737069916      0.05748679833872
  C   -3.14424815717857      0.83405093404760      0.25176392797326
  N   -3.92688685734163      1.83551564494506      0.72206871200846
  H   -3.59886150212474      2.78406518734536      0.74721078795616
  H   -4.91819492069093      1.67978066187777      0.70461901393314
  C   -1.76163666732459      1.13838056582281     -0.01350137891854
  C   -1.47303946669914      2.52098067481535     -0.06638949766883
  N   -1.31113818875967      3.67275650088723     -0.09321916999136
  C   -0.68321661897051      0.24202849048266     -0.12364718926257
  C   0.60374976339043      0.74916598502096     -0.31697926275705
  H   0.73534801510390      1.79933990118205     -0.53701066333652
  N   -4.04791742620609     -2.38507673602444     -0.79411418535905
  H   -5.03234589473213     -2.19778748102543     -0.73706937689086
  H   -3.74680750848451     -3.34248062101795     -0.79452454257789
  H   0.14599627484971     -3.04826497160249      0.56914924619223
