27
Coordinates from ORCA-job ./opt_b97-3c_parallel
  N   -1.48602549011295     -3.35361140323223     -0.14757123225613
  C   -1.56379872656920     -2.19604432028251     -0.07911166549874
  C   -1.79984237179324     -0.79827306869550     -0.00756201047783
  C   -3.17387293270421     -0.49431551665426      0.04220164548588
  C   -3.73415266962729      0.80653589479398      0.07045075702753
  C   -3.11661541091092      2.01799764576473      0.03671845402507
  C   -1.75113372619753      2.32149522934835     -0.01267528685545
  C   -0.63234288035724      1.51263881586634     -0.01827312628027
  C   0.60473070146023      2.21436832939540     -0.04861839346760
  C   1.79096142614092      1.54911435186608     -0.03394934074775
  C   1.79923039815019      0.09254234707008      0.01046293096273
  C   3.15115883556712     -0.25454327468584      0.02428591343548
  C   3.71159138851263     -1.53416215576397      0.06611860576910
  N   4.17947140474249     -2.59910025248432      0.10099158287641
  C   3.85555983365587      1.00008868967924     -0.01466222391747
  N   3.06561943997382      2.06295505002062     -0.04871443064322
  H   4.93161804889287      1.10264827382993     -0.01734218850887
  C   0.60645548350661     -0.61698813376063      0.03032747690206
  C   -0.62411860248191      0.02975318905586      0.01079333500984
  H   0.64729410370400     -1.69627229521068      0.05961756471894
  H   0.59418863800831      3.29512189170208     -0.07275175672212
  H   -1.53613586420788      3.38248500930801     -0.03986931565481
  H   -3.77553577413360      2.87668080145531      0.05282741045983
  H   -4.81636547249185      0.83225037626276      0.12460597286306
  N   -4.08650979771784     -1.51167692642829      0.10985082035729
  H   -5.03784339229048     -1.31189625429843     -0.13731863374944
  H   -3.78984987961892     -2.45719337752216     -0.06146823591349
