26
Coordinates from ORCA-job ./opt_b97-3c_parallel
  N   -2.04516139916412     -2.72091318453100     -1.15518901308088
  C   -1.77760176549782     -1.70439386191357     -0.65692554382739
  C   -1.62708633202487     -0.39404506223245     -0.14269041459460
  C   -2.85667051322952      0.24709996403823      0.09103741473621
  C   -3.01768973886859      1.60938829403527      0.46315674308648
  C   -2.10880209950877      2.61644355984099      0.38741351235676
  C   -0.75917078839046      2.57135895730896      0.00945560603434
  C   0.09395300198065      1.49693252390928     -0.13472423363899
  N   1.38770379340771      1.89942329461490     -0.37540397643595
  C   2.32474039921327      1.00666114489263     -0.29251982170760
  C   2.09114205392086     -0.40315147900158      0.08894997196203
  C   3.33207074183732     -0.96714219258895      0.17687073913741
  C   4.24122630865414      0.09205855562370     -0.18368180412595
  N   3.66862043748453      1.25429966696378     -0.45714217668322
  H   5.31738908966531     -0.00814551682006     -0.23975341323127
  H   3.58893735265333     -1.98004677747323      0.43893759865366
  C   0.75778969153430     -0.83032363097524      0.24233046129808
  C   0.54538884190289     -2.16320679344045      0.66642096547298
  N   0.47252485882889     -3.24103796755192      1.09211728821334
  C   -0.28090613887653      0.08603123453435      0.04143174903415
  H   -0.26170736584388      3.52375556328895     -0.11173680492245
  H   -2.48243219070943      3.60377958649164      0.62815426592848
  H   -4.02112675782765      1.88657179987615      0.76360649782441
  N   -4.01147946755452     -0.46459252469105     -0.00370651054748
  H   -4.87927902908926      0.02605866974233     -0.11193302920793
  H   -3.99134548679833     -1.40609558524149     -0.35776613983450
