24
Coordinates from ORCA-job ./opt_b97-3c_parallel
  N   -3.88700870234850     -1.67216513066767     -0.12783340374584
  C   -2.90784561309236     -0.69443825441466     -0.04978528288012
  C   -3.31916706868787      0.63798063982377     -0.03479265680224
  C   -2.54008890782397      1.78102256617781     -0.01387955584517
  C   -1.16463641922718      1.92162715853097     -0.00069155059518
  C   -0.13626181947198      0.97328586215830     -0.00512576235681
  N   1.10211920120219      1.50366119455735      0.01478027444743
  C   2.11986716097694      0.65754957648029      0.01100662572471
  C   1.90253812319436     -0.83352530707967     -0.01374135310394
  N   0.69851653646499     -1.35994972026756     -0.03363930614291
  C   -0.35261419256382     -0.49237553505560     -0.03042270234549
  C   -1.57885073921231     -1.14051185239496     -0.05504769890419
  H   -1.45060920455871     -2.21744819514442     -0.08095146626553
  C   3.16413927649036     -1.43876724947486     -0.01011608852398
  C   4.10274973123389     -0.40220497901335      0.01471021106652
  C   3.48815508035606      0.87322017422249      0.02802757658391
  H   3.98842802364648      1.82710165361183      0.04736923779126
  H   5.17320409397291     -0.55418717159691      0.02274589907828
  H   3.36595734647025     -2.49672081360424     -0.02450493657685
  H   -0.78643442330405      2.93606076158819      0.01772848590008
  H   -3.09433537545297      2.71112459760233     -0.00302297042768
  H   -4.39175705975467      0.80066128992487     -0.04457504842050
  H   -3.62167695718766     -2.59307132702743      0.17564148871915
  H   -4.80445879512237     -1.41161432053690      0.18984444812506
