25
Coordinates from ORCA-job ./opt_b97-3c_parallel
  N   -4.17639555171018     -2.17188102056564     -1.00733308217798
  C   -3.42506626262513     -1.34227379575055     -0.68361706755852
  C   -2.62622328440237     -0.27020667889925     -0.29253627425210
  C   -1.26106639044184     -0.20022522651897     -0.06249215041439
  C   -0.95122769667482      1.20541855758984      0.35933962081173
  C   -2.14393916042260      1.91877316227186      0.42903915556836
  C   -3.16563364172731      1.04577785120741      0.02627581792638
  N   -4.46590750072666      1.31566927502613     -0.07511259065965
  H   -5.11378172317023      0.60277514767434     -0.36471046015471
  H   -4.83507544283845      2.21471936707384      0.17282295883955
  H   -2.25785316104566      2.95513589587797      0.69960375457106
  N   0.29262845826503      1.60636947096261      0.53469683131965
  C   1.24958924230579      0.66109483949221      0.35697304517210
  C   2.52644320495000      1.13575144326081      0.15592469552688
  C   3.71055538920979      0.40806407136878     -0.12451603531945
  N   3.97673190078303     -0.86033622325173      0.17072203957653
  C   3.06662808028682     -1.73837954209804      0.57418903577473
  N   1.75803179747236     -1.78061747601284      0.46381980346805
  C   0.90406613519251     -0.78773265998271      0.21790656608420
  N   -0.34479230634972     -1.15763964154650     -0.07821090264826
  H   3.49928744790968     -2.64381031844436      0.98955738925538
  N   4.75133711829991      1.10269607422998     -0.64364830552194
  H   4.61805432810055      2.00575412699666     -1.05731699446404
  H   5.58143098520464      0.58853298431296     -0.87873868712872
  H   2.60069534795358      2.21698802762448      0.14638492590347
