26
Coordinates from ORCA-job ./opt_b97-3c_parallel
  N   3.86967946898689      2.52390004807746      0.00419327460968
  C   3.19216523133479      1.57446555497035      0.00427124690109
  C   2.43013616769646      0.40922125967570      0.00479713825556
  C   1.03365884413957      0.27390756184080      0.00321320308918
  C   0.73247375598240     -1.17161939041576      0.00552793640429
  N   -0.50780613269318     -1.65371134555598      0.00484464613277
  C   -1.53685478498327     -0.79218190393825      0.00198334642766
  C   -2.79232659572869     -1.42806185517359      0.00153327325874
  C   -4.08346702208294     -0.93921589747765     -0.00096274002016
  C   -4.51829362042233      0.37971620924592     -0.00382910096784
  C   -3.73815977128391      1.52326456623118     -0.00487669634851
  C   -2.35654490123116      1.62909960340177     -0.00333430718266
  C   -1.33682908286394      0.67162135117192     -0.00037543047503
  C   -0.01501854446032      1.15417094981437      0.00041918103972
  H   0.15795812684601      2.22297657572517     -0.00126531934029
  H   -1.98979902072479      2.65019741760110     -0.00469095103753
  H   -4.27337411978869      2.46467711527835     -0.00720709246935
  H   -5.59108375110086      0.53075258628640     -0.00544351707327
  H   -4.86122349878427     -1.69285456488792     -0.00060703366818
  H   -2.69224238454901     -2.50612405667642      0.00357407880555
  C   1.93337887394357     -1.86953346429707      0.00841560506762
  C   2.97655617137464     -0.91875698341107      0.00803649454875
  N   4.29177015326674     -1.17586414746447      0.00906690517521
  H   4.95978202691610     -0.42603511829098      0.01378376642320
  H   4.63970457430434     -2.11522249785975      0.01765269424876
  H   2.04720356980587     -2.94095952167157      0.01033457869503
