20
Coordinates from ORCA-job ./opt_b97-3c_parallel
  C   3.61738078265594      0.05058767799033     -0.01255260070693
  C   3.07592654050621     -1.22324553506973     -0.06033825718726
  C   1.73953916462965     -1.56795885818473     -0.01586005375568
  C   0.58445998408490     -0.77559671081366      0.04091887363555
  N   -0.55162485615799     -1.49087475548359      0.08846706379208
  C   -1.68086823767795     -0.79667107762812      0.04999014122306
  C   -3.01365738629728     -1.16017010551560      0.07530300502941
  C   -3.71333221123248      0.06377471870661     -0.03898522295859
  N   -2.94456223538105      1.17105508809008     -0.12973555062674
  C   -1.68480242381445      0.69572030256900     -0.07275888988327
  N   -0.58498175831869      1.40829297174110     -0.08846287818350
  C   0.58138067090298      0.72465527666368     -0.01141470043532
  N   1.63756429722679      1.53056144786467      0.03958443091713
  C   2.92958553426211      1.25619771151950      0.07310311665978
  H   3.55059557269737      2.14433737025797      0.14898504010352
  H   -4.79021566129732      0.16730363539539     -0.05809207071121
  H   -3.43334289053441     -2.14834960966464      0.15782472108540
  H   1.50933502608735     -2.62611880259814     -0.02251332515126
  H   3.77564690295466     -2.04685143736226     -0.12146229539769
  H   4.69802007780364      0.12872693212212     -0.02713533034848
