29
Coordinates from ORCA-job ./opt_b97-3c_parallel
  N   1.08137964573602      4.10761306115390      0.23640656351354
  C   1.15147675721195      2.94819598512636      0.17026727538901
  C   1.33852778520056      1.55065087404366      0.06237780177453
  C   2.69488326092467      1.17465716738198     -0.20029532562764
  N   3.26481119797049      0.00114776114379     -0.00230352606728
  C   2.69624311823353     -1.17275365085087      0.19729329553004
  N   3.54997933262465     -2.12900286791995      0.63696528174878
  H   3.27949480411406     -3.09596038686235      0.65411595094454
  H   4.52985597076564     -1.91628171794797      0.59053420464038
  C   1.33943984228364     -1.54969757606734     -0.06161357159229
  C   1.15305407929059     -2.94737770795984     -0.16892545918378
  N   1.08344687510187     -4.10683589109278     -0.23486538259688
  C   0.19011734408288     -0.73251940806131     -0.14968906317867
  C   -1.02709477730843     -1.36574204051162     -0.42007619031097
  C   -2.22004516629200     -0.69681494554349     -0.23835947113469
  C   -2.21987016391789      0.69535057896886      0.24862955087291
  N   -3.48368732610636      1.10524572882316      0.39613696567049
  C   -4.18628004900931     -0.00138390432900      0.00771535267640
  N   -5.51527314709219     -0.00182110153984      0.00941631587053
  H   -6.01450029926858     -0.82342522542195     -0.27717730965871
  H   -6.01430022467800      0.81934208388123      0.29761867909556
  N   -3.48396334855153     -1.10755705327351     -0.38254537207549
  C   -1.02689622963171      1.36506781805717      0.42720089529978
  C   0.19002579430880      0.73267337859549      0.15353477580367
  H   -1.04361384215168      2.41207554521182      0.68976068396007
  H   -1.04381361147627     -2.41275975985817     -0.68259112464317
  N   3.54672699187515      2.13150753220645     -0.64230159573993
  H   4.52687551214216      1.91944623061263     -0.59868307547600
  H   3.27551923501729      3.09827314683348     -0.65877202220472
