32
Coordinates from ORCA-job ./opt_b97-3c_parallel
  N   -5.54572681195805     -0.29229603366086     -1.15682361438281
  C   -4.46555900755339     -0.12284141231753     -0.75705121140056
  C   -3.17010456673158      0.13348718553778     -0.26607324543494
  C   -2.82777708118376      1.48092441559972     -0.12789261072738
  C   -1.57877914260440      1.98608985384258      0.32716817751574
  C   -0.34375437407097      1.39597061966709      0.38615897475560
  C   0.75453192665417      2.30594070977810      0.60220323988715
  C   2.03003262474339      1.91584575198340      0.39731091536281
  C   2.31676414190736      0.55734415238348     -0.04604850321854
  C   3.68169318713375      0.48834544896927     -0.26817197462485
  C   4.45566708680313     -0.58874446270795     -0.71304273774017
  N   5.16610032904316     -1.43403005906498     -1.07912378936197
  C   4.25912859954192      1.79761640319743      0.05662187658933
  C   3.28016911011942      2.64439853331321      0.45021424371871
  H   3.38958004530970      3.67499595732348      0.74459113685044
  H   5.31266026295479      2.01205669841383     -0.02168230180556
  C   1.25636705315698     -0.37849259935331     -0.14748328692742
  C   1.53566305569143     -1.68310843697557     -0.61941226213984
  N   1.75974925545682     -2.72259449814717     -1.08455218598639
  C   -0.05558666627044     -0.01144095809849      0.15915080604950
  C   -1.04196932086008     -1.02945307657096      0.44225196957818
  C   -0.58317254824998     -2.21679549110694      1.05082732476263
  N   -0.32030175631392     -3.20164901246557      1.61276671683736
  C   -2.42295795258862     -1.00276093672287      0.20800361304920
  N   -3.13835960379261     -2.12866616629650      0.41057466690517
  H   -4.13754515193889     -2.13793004912252      0.32516616728881
  H   -2.68071016179371     -2.98994256533619      0.65292037183347
  H   0.52259775326712      3.33376415810716      0.84976678905763
  H   -1.59148779568408      3.04836241857106      0.53952308550459
  N   -3.75704762190173      2.43156065023218     -0.40575056586923
  H   -3.46394878069024      3.37938433368052     -0.55168602330455
  H   -4.63773566329442      2.17331952825141     -0.81694460992087
