32
Coordinates from ORCA-job ./opt_b97-3c_parallel
  N   2.32565790359622      3.76360663510474      0.06089180698916
  C   2.20945085519355      2.60735626310468      0.03157900989374
  C   2.29657452350886      1.19249340947023      0.02009027121551
  C   3.63304855071127      0.67742042642599      0.10943386820131
  N   4.06422481401198     -0.57038680020049     -0.02872197410888
  C   3.33967290036017     -1.66835928995555     -0.14547754832740
  N   4.06493045027259     -2.78876264939458     -0.37331178356577
  H   5.06610996486902     -2.72154089227860     -0.36186775325977
  H   3.64261120496499     -3.69692611962519     -0.40593878981161
  C   1.93840797367436     -1.85783895737310     -0.03690812952717
  C   0.90975083438930     -0.95236580936731      0.02377481597048
  C   1.06459714504333      0.51343554990435     -0.03443642672942
  N   0.00923456415413      1.33863290414404     -0.10445702929049
  C   -1.20966669634872      0.83786826653995     -0.06652533995398
  C   -1.50489829742819     -0.60370217534921      0.06895968278437
  C   -2.89755980626289     -0.76115173025570      0.10296406452335
  C   -3.68287573260833     -1.90918005052016      0.21727988444031
  N   -4.42956006970440     -2.79804787039805      0.30815870822157
  C   -3.46563005479770      0.54436911463592     -0.01759153553424
  N   -4.76211560133514      0.81346012684133     -0.03020837899159
  H   -5.44127723051940      0.07534396627180      0.04967828307534
  H   -5.09028303517525      1.76031037018055     -0.11801011342459
  C   -2.42531817946535      1.52583905119953     -0.12384678403884
  C   -2.67142455477560      2.89304104118097     -0.24865403544160
  N   -2.97926694065883      4.01079950090797     -0.35112358156413
  C   -0.43218769751344     -1.47032084160682      0.10911343121622
  C   -0.63034625666924     -2.86580525139453      0.19644379068363
  N   -0.74424897785463     -4.01963343155276      0.26564172077676
  H   1.63615812550829     -2.89700317045295     -0.02650871069803
  N   4.62403544084545      1.56339250636036      0.33197428385045
  H   5.56764766407240      1.22613562334499      0.28551068759333
  H   4.45573092434118      2.55304533150766      0.36578597153198
