32
Coordinates from ORCA-job ./opt_b97-3c_parallel
  N   -5.78468656482117     -0.49946816414474      0.33883338733025
  C   -4.63170841480945     -0.38797775760112      0.22553351604325
  C   -3.23627486088637     -0.23966885564365      0.08495354858085
  C   -2.77961460830679      1.09414673891399      0.07992041014542
  C   -1.42340198727994      1.52472156090834     -0.08446884353201
  C   -1.27185132819719      2.93713940291882     -0.17355523869215
  N   -1.36980566068145      4.09422140997057     -0.22273384655043
  C   -0.21668168489117      0.81499468568082     -0.11778775791693
  N   0.83722808194328      1.65511312668925     -0.22837561049627
  C   2.05388492573330      1.17127184463193     -0.14724986298471
  C   2.32246610952083     -0.26395525201227      0.07351360700602
  C   3.70424518986859     -0.36780020008849      0.14410529833950
  C   4.52549995812169     -1.47446870073011      0.33875698879545
  N   5.26537279977873     -2.36064280781591      0.49785339406768
  C   4.17243239076556      0.99738086939714     -0.05287335398461
  N   5.44860934939832      1.35439494933742     -0.06852084029268
  H   6.18115968913082      0.67866717575683      0.06000834990981
  H   5.68850776756606      2.31988259713425     -0.21261270097639
  N   3.18574672122079      1.89494464468314     -0.22352717932816
  C   1.25374629343598     -1.13244902953964      0.12354470394210
  C   -0.05047774050432     -0.64830209455572     -0.00407229463635
  C   -1.10212377937109     -1.60143066993095     -0.10779864067378
  C   -0.69156618036899     -2.95171494175503     -0.22010045760400
  N   -0.43092410915619     -4.08046493662673     -0.32214945627875
  C   -2.51159313108946     -1.45106144701161     -0.09497265147046
  N   -3.25529131923819     -2.57135379534580     -0.23430344652879
  H   -2.82310555222383     -3.47779316856848     -0.25489881643972
  H   -4.25691800343604     -2.53898383544408     -0.17914602023742
  H   1.42710749125879     -2.19240398935771      0.23529231884995
  N   -3.69886610731784      2.06573883732773      0.23292101895313
  H   -4.67824395603418      1.85135044344214      0.29135384856381
  H   -3.43027212102908      3.03407889647975      0.19737047089657
