28
Coordinates from ORCA-job ./opt_b97-3c_parallel
  N   -4.47453166912548     -1.65751597477341     -0.48752520261989
  C   -3.60290542983826     -0.90273975056447     -0.31877050237697
  C   -2.68371645288718      0.12386352701516     -0.10737989914366
  C   -3.11165673559186      1.49906870574196      0.09078714648606
  N   -4.39790546402455      1.85232154637580      0.08274762851262
  H   -5.11481163204322      1.16103998338231     -0.05933337199051
  H   -4.68179963767002      2.80390128110638      0.22138089881358
  C   -1.99432925440340      2.32469718236681      0.27673316013515
  C   -0.86124855298569      1.51623773475947      0.20390582507978
  C   -1.29533520036269      0.12069096105419     -0.03602433627484
  C   -0.33944849432168     -0.89425040594481     -0.11688416813966
  C   -0.74755546592113     -2.23922910743099     -0.26692245249848
  N   -1.04965967796835     -3.35409630205025     -0.38863739631712
  C   1.04164886635484     -0.60142003141179      0.02017322318771
  C   1.93939417371803     -1.64007127740431      0.21147492173259
  C   3.31976371287017     -1.59580215575300      0.43745112443917
  N   4.19604447477267     -0.63138006495006      0.28772876854160
  C   3.85503464943388      0.61265352127959     -0.11291148216764
  N   4.89118915872835      1.32841338680659     -0.61348531880879
  H   5.81702956433632      0.96141151454823     -0.48939536528818
  H   4.77327036545070      2.31939372773665     -0.71802407752903
  N   2.70976817430247      1.27715749436231     -0.01670593119753
  C   1.46385038228125      0.82711248985430      0.10623261947205
  C   0.48426413577895      1.81275405499163      0.26404296212772
  H   0.82520080349255      2.83389359397369      0.35499226571964
  H   3.75681375393934     -2.53222807932805      0.77241420145930
  H   1.51262640438361     -2.63287926719796      0.27510509965112
  H   -2.01266270229960      3.38985952175406      0.43777721559417
