24
Coordinates from ORCA-job ./opt_b97-3c_parallel
  N   -1.85340988928015     -3.15322468657076      0.01885193218704
  C   -1.56408701454388     -2.02816439815190      0.00179457541370
  C   -1.49233030142951     -0.60534492227124     -0.01361349131103
  C   -2.76365814584301      0.03257023587216     -0.02923052500284
  N   -3.87533195122184     -0.74863965798803     -0.09560636593209
  H   -4.77351163234551     -0.33917715683746      0.07795753205335
  H   -3.80241256516276     -1.74417168031710      0.02521895141576
  C   -2.97087294541608      1.42023993167691     -0.00835977773901
  C   -2.05599596415790      2.44528468160502      0.01007774608733
  C   -0.67057983121517      2.40786179861220      0.00717287737951
  C   0.21623090356184      1.33419317626888     -0.00660780184392
  N   1.51734114883982      1.70714776946350     -0.00910285163133
  C   2.41029730075060      0.73615869146728     -0.00539536923513
  C   2.01227511627053     -0.70852976906529      0.00755301900011
  N   3.08235799340519     -1.50796245277028      0.01549891865237
  C   4.13459904673860     -0.63974127876675      0.00660837163550
  C   3.80053750048514      0.72287383250633     -0.00671423459265
  H   4.47252385484732      1.56388641810281     -0.01505657612107
  H   5.13984738974518     -1.03937530137587      0.01034867844084
  N   0.74800337722455     -1.07549888432584      0.00663111908981
  C   -0.17618906640857     -0.09249105400077     -0.00406182006296
  H   -0.16313264851077      3.36367325077902      0.01491013736569
  H   -2.48536555787319      3.43893731454765      0.02577336217237
  H   -4.01127248145990      1.72467585063919     -0.01665916612137
