32
Coordinates from ORCA-job ./opt_b97-3c_parallel
  N   6.01497964875393      0.78079110439051      0.05838181350766
  C   4.86327239522073      0.61626738115065      0.01601839489273
  C   3.46833402778015      0.42245788584403     -0.02387953487136
  C   2.67628780805117      1.59344339511002     -0.03696114973604
  N   3.32110899911314      2.79262380955639     -0.07654889374210
  H   4.31239971581625      2.84574993602993      0.07707774399010
  H   2.79978421150549      3.63034967635577      0.10110701122431
  C   1.27661355730031      1.66425042487377     -0.03990179513133
  C   0.26333850183289      0.72041928029479     -0.02305350143144
  N   -0.97104362026207      1.28565109945968     -0.01355173593481
  C   -2.02676373157909      0.50596802676807      0.00501067886605
  C   -1.96538287905433     -0.97712127169156      0.01598314943822
  C   -3.25166905749258     -1.47316180416866      0.03806254726645
  C   -4.12978380452296     -0.35686873197861      0.04079064344514
  N   -5.46158114455207     -0.40466980097091      0.05960649836230
  H   -5.95375375573163     -1.27835658712525      0.07097354679169
  H   -6.00296075738111      0.44278821095169      0.05812453806075
  C   -3.38277492523773      0.86783234726370      0.02096977011096
  C   -3.96438406057666      2.13287771242320      0.02097876781686
  N   -4.53196389428872      3.15072470936645      0.02289771989154
  H   -3.54926066681392     -2.50891679032923      0.05044271213589
  C   -0.70001945129971     -1.56000160947819      0.00311556731441
  C   -0.59665656434603     -2.96670728781766      0.01713381028425
  N   -0.53039123400451     -4.12738430805356      0.03182040607907
  C   0.46547972179980     -0.74116349607565     -0.01896959907539
  C   1.69721969979002     -1.37453060044094     -0.04658727430690
  C   3.02096102042535     -0.92226639442349     -0.04997609247497
  N   3.97444633210464     -1.89649055227086     -0.11172040812815
  H   4.93913380470416     -1.67297786464584      0.05739627306668
  H   3.70714062987823     -2.84549613828923      0.07242295136907
  H   1.62658221750898     -2.45570366733146     -0.06613109598663
  H   0.87368425745792      2.66932255735245     -0.05371658259488
