30
Coordinates from ORCA-job ./opt_b97-3c_parallel
  N   -4.92924598161212     -0.08598514076619      0.24867124834841
  C   -3.55802150778145     -0.16929423657194      0.13870931435310
  C   -2.99527031371244     -1.44394411419894      0.13629213891065
  C   -1.66742614959544     -1.77835695103165     -0.04714975331038
  C   -0.50071146137883     -1.01816825975760     -0.12815226567126
  C   0.69619930142248     -1.77264810485129     -0.22465797502056
  C   1.93500510150216     -1.19823669949672     -0.15726016458910
  C   2.02967770724754      0.24956211898682      0.05897366154285
  C   3.38687704414769      0.56260303457542      0.18063173926815
  N   3.93822124883284      1.83732428319383      0.34067406112644
  H   4.88148754067289      1.81079518760159      0.69609632166187
  H   3.38115913615272      2.43600346675522      0.93161527160273
  C   4.11895523979233     -0.64180680602817      0.01567321145132
  C   3.25118986994986     -1.71027309602034     -0.18738493482120
  H   3.53156800328919     -2.74315977445679     -0.32019307440500
  H   5.19809424902720     -0.70882077035559      0.04737655270651
  C   0.87066885838877      1.00867691375279      0.08334191005185
  C   -0.39864169942670      0.44397644737618     -0.04574796901307
  C   -1.52865568711604      1.32522639720692     -0.17314838658326
  N   -1.23989299021416      2.66157716121812     -0.36671971530528
  H   -0.40878756110156      2.86374088907621     -0.89354305690124
  H   -2.01638830913996      3.24408458954406     -0.62585504759832
  C   -2.88430465572625      1.04143286954766     -0.07706073049294
  H   -3.53885475516243      1.89687417937991     -0.20927505975034
  H   0.96395316638563      2.07472413721234      0.24252793862336
  H   0.60680329711231     -2.84880537097290     -0.31691078992100
  H   -1.49050715976243     -2.84743576566212     -0.09054629110110
  H   -3.68544872979018     -2.27231790915107      0.24568514321797
  H   -5.30926344235357      0.78262457079651      0.58177769219182
  H   -5.40098211115001     -0.89432755480231      0.61405442062678
