25
Coordinates from ORCA-job ./opt_b97-3c_parallel
  N   -2.13166217485151     -3.24112118402951     -0.05872391973085
  C   -1.89892574489030     -2.10323895260513     -0.01043503101414
  C   -1.84032048993981     -0.68534235325735      0.01588582464910
  C   -3.09758402327646     -0.04178786901095     -0.08977421408999
  N   -4.19553393713519     -0.79934627245326     -0.32639698396845
  H   -5.10684755315899     -0.38940950046214     -0.25034676841503
  H   -4.14072996008040     -1.80287240451000     -0.29283749660119
  C   -3.29575641828011      1.33872194176858      0.08489273223337
  C   -2.35074560867679      2.32273384857704      0.24142763288558
  N   -1.03336813672493      2.32812607564444      0.08582858166496
  C   -0.20292530514484      1.30915533344547     -0.04837838015629
  N   1.06685558052198      1.67888464357026     -0.33000345145861
  C   1.98922017660982      0.74797732809188     -0.24402557351915
  N   3.30402086973635      0.91053076456405     -0.44407990580915
  C   3.83246279464733     -0.29661340784225     -0.11669358238946
  N   5.14856157826708     -0.47668975577259     -0.20032916533714
  H   5.72435565261896      0.28873020097014     -0.50529400416582
  H   5.58128493107591     -1.34741731926750      0.04364457463320
  C   2.87639226547718     -1.28782584582218      0.29806923165844
  C   1.67277337886738     -0.64537238618749      0.19724656142706
  N   0.41149097187855     -1.05522565747190      0.34301387351209
  C   -0.53805663392020     -0.14061318145760      0.15133593261144
  H   3.07335894383028     -2.30663284904586      0.58682739614300
  H   -2.75100019120480      3.30803498148305      0.46590317371907
  H   -4.32662565195036      1.67149944397715      0.12291089461695
