25
Coordinates from ORCA-job ./opt_b97-3c_parallel
  N   -3.66547047168971     -2.22161317702103     -0.43069103709087
  C   -2.85628630050333     -1.17693085698759     -0.11150596145369
  N   -3.45593425165720     -0.00192790364904     -0.09158093949874
  C   -2.82074945527438      1.16250038209898      0.10729270562445
  N   -3.64977102489106      2.17991268835702      0.46856626981395
  H   -3.29245556146308      3.11277444395767      0.37133230253832
  H   -4.63594753500451      2.03613393005625      0.35044025433862
  N   -1.55542246713974      1.52679522828830     -0.05663594262329
  C   -0.45724656884825      0.77416877674782     -0.08414039591918
  C   0.74088082115274      1.42991489396900     -0.37970082042107
  C   1.92312187584805      0.73836957629206     -0.23040640589948
  N   3.19674832050707      1.10824091117585     -0.36672871156794
  C   3.86156254382131     -0.02636952888259      0.02703068484242
  N   5.19229106027068     -0.05369628054249      0.03227937121964
  H   5.67302091834989     -0.88335906292725      0.32567249796190
  H   5.70701846856554      0.75894157392464     -0.25112524547986
  N   3.13606780596118     -1.10809676228325      0.40918659993187
  C   1.87867687418140     -0.67136750610397      0.25498629846495
  N   0.77023971897150     -1.34741805295880      0.46563409066238
  C   -0.39482297171946     -0.69302332830940      0.23204681078327
  C   -1.50563126632277     -1.50247642075118      0.17961531962183
  H   -1.27903501664468     -2.55331250823839      0.31105095965801
  H   0.71216312210984      2.48020297977933     -0.63067934608283
  H   -3.35265818405807     -3.16611305700319     -0.31189219141338
  H   -4.65464980352297     -2.05269426698878     -0.45318117911130
