26
Coordinates from ORCA-job ./opt_b97-3c_parallel
  N   4.37182086654898      1.64129860429733     -0.12727148358642
  C   3.34848453635196      0.70060293621078     -0.04863909068173
  C   3.73458724352067     -0.64963494535304     -0.04210748638153
  C   2.92732145966429     -1.76049366810958     -0.02010981972402
  C   1.54124173251841     -1.86563185735827     -0.00198066020928
  C   0.53684168986454     -0.89899969559548     -0.00548072593600
  N   -0.70871678742182     -1.42051747864180      0.01802834941793
  C   -1.73647243398100     -0.59334395451422      0.01445115268055
  N   -3.02409457227801     -0.96537057336345      0.03198964848906
  C   -3.71456896665046      0.20662647068459      0.01159370590892
  N   -5.05998404912184      0.17094621910646      0.05266839445997
  H   -5.49889861428546     -0.72155621573641     -0.09013764346387
  H   -5.59185777290362      0.99063163311345     -0.17206671091209
  C   -2.90016161147396      1.37002013724224     -0.01743391247521
  C   -1.60386058206378      0.88689164704379     -0.01721448430189
  C   -0.32872971853354      1.41387616712630     -0.03670465039782
  C   0.78409406641595      0.56314405462127     -0.03153380644003
  C   2.04383639388478      1.17745434186092     -0.04858290191351
  H   1.97893607842419      2.26223237747331     -0.06806604270579
  H   -0.16970208719027      2.48553915515175     -0.05729620296376
  H   -3.23480417582870      2.39498964162832     -0.02950139690298
  H   1.14153748783190     -2.87095511704211      0.01733980165143
  H   3.45170830229893     -2.70843909674460     -0.01329831208662
  H   4.80285411048330     -0.83620938068498     -0.06213173152051
  H   5.26177254873914      1.34233094134431      0.23376426190510
  H   4.13585199578542      2.56707753033912      0.18748177719008
