26
Coordinates from ORCA-job ./opt_b97-3c_parallel
  N   1.52023341697702      2.71996066918330      0.70403897892049
  C   1.57937855228733      1.49423412411471      0.14160200388775
  N   2.78114487287537      1.20135160656794     -0.36129498656366
  C   3.19280816932386      0.00002474722085     -0.70735470200349
  N   2.78119910410048     -1.20116014370904     -0.36073453452931
  C   1.57944286743717     -1.49386228883762      0.14229013705943
  N   1.52034615591682     -2.71933215654317      0.70528938029343
  H   0.75524727560226     -2.98682266020645      1.29336493453848
  H   2.36291506775735     -3.26551566191440      0.72052392334806
  C   0.37311537181642     -0.72746700820459      0.03366254588927
  C   -0.84884483082130     -1.40616267405455      0.00862258762324
  C   -2.05578410838599     -0.73500995534154     -0.04483784207022
  C   -2.05581645212928      0.73513767546470     -0.04516298813118
  C   -3.39044562141338      1.15273310916541     -0.13391725316949
  C   -4.18933410879417     -0.00001245070445     -0.17960758261706
  C   -3.39039415559492     -1.15270327060846     -0.13341226623348
  H   -3.74074300323270     -2.17280564836772     -0.16235336431232
  H   -5.26805875459807     -0.00005080559131     -0.24566703888759
  H   -3.74083982483279      2.17280734774156     -0.16330550925126
  C   -0.84890718702207      1.40636700302187      0.00799679571439
  C   0.37308371611660      0.72773696056378      0.03333549194238
  H   -0.84869979900493      2.48804020492569     -0.04312488081225
  H   -0.84858964621461     -2.48785846089634     -0.04201560787991
  H   4.10379635012092     -0.00009360587636     -1.29978241800454
  H   0.75512893972150      2.98768645553542      1.29200166043823
  H   2.36278069999115      3.26618618855082      0.71901785321065
