30
Coordinates from ORCA-job ./opt_b97-3c_parallel
  N   2.66761175713815      3.52680117259859     -0.01429870265922
  C   2.42332421066392      2.38877541248259     -0.00270016121326
  C   2.20045796279525      0.99382570366000      0.01352302346341
  C   3.39685514956241      0.22597371525193      0.10325558895403
  N   3.57791489929963     -1.08881691463299     -0.01347850450739
  C   2.65366577937196     -2.02342528582394     -0.10436369131927
  N   3.14485704207487     -3.27373615821174     -0.32427663573850
  H   2.55613793266648     -4.07839196213011     -0.22032842572581
  H   4.13562565829812     -3.40348106776168     -0.22630356427339
  C   1.24459451542766     -1.93121818544756      0.00291861048408
  C   0.40689640833795     -0.84271850367226      0.05083971470716
  N   -0.90694231224068     -1.19984733247576      0.12836486432572
  C   -1.81508893089546     -0.25839275689202      0.07626655326849
  C   -1.49527216683499      1.18433307834638     -0.07167101417730
  C   -2.68004420037944      1.88899128893964     -0.11171475892540
  C   -3.73992793204760      0.94391431141027      0.01169439202761
  N   -5.04280852128416      1.22949874444401      0.02030894985217
  H   -5.37301857597560      2.17239910755687     -0.06381050207556
  H   -5.72455742289219      0.49614961925017      0.11336769369972
  C   -3.21769174770550     -0.38011565463284      0.12893472787615
  C   -4.00899294089721     -1.51833720204358      0.25669775430021
  N   -4.74364795389013     -2.41752463182183      0.35992821338567
  H   -2.80441420140768      2.95573009810778     -0.20826257575715
  C   -0.15702791390486      1.54217854486694     -0.11316058274232
  C   0.83859856645430      0.57521955617605     -0.02830050739298
  H   0.11380245228951      2.58585278682632     -0.18458994881410
  H   0.70726785083409     -2.87055905649004      0.02171489877827
  N   4.56407775605898      0.88776193299166      0.32653392149950
  H   5.40506455577731      0.36242477180150      0.17334559176115
  H   4.61498823960474      1.88799306532570      0.25511590643828
