20
Coordinates from ORCA-job ./opt_b97-3c_parallel
  N   -4.53389450720298      0.00009956886776     -0.02048950301228
  C   -3.21051306473538      0.00003687264076     -0.01677923179464
  N   -2.51759436503024     -1.02461482456918      0.57169859872020
  C   -1.26181936557379     -0.66660407544994      0.33905260117365
  C   -1.25984757229117      0.66667245883164     -0.36166489944634
  N   -2.51426816558512      1.02470294137502     -0.60138128644311
  N   -0.15391850245000      1.36820245607775     -0.54736920670257
  C   0.95923573006943      0.74459468735999     -0.14008030828624
  N   2.00032351185077      1.51205167958996      0.14542380500438
  C   3.25840746538675      1.17659159118713      0.35257278310757
  C   3.90848471552017     -0.00009068060624      0.00311813431314
  C   3.26035055017618     -1.17672686118410     -0.34999911611181
  N   2.00109855917777     -1.51215018711227     -0.14986854133748
  C   0.95845893828226     -0.74464656316186      0.12973283697882
  N   -0.15699623157002     -1.36820014224535      0.53086648970745
  H   3.86877494289737     -1.97884587781742     -0.75775000802892
  H   4.99139611418392     -0.00009826177082      0.00621085044869
  H   3.86455705321240      1.97867605956339      0.76378489721761
  H   -5.03141973640751      0.75189572850220     -0.46241002110242
  H   -5.03398806911082     -0.75159083517838      0.41870255049432
