39
Coordinates from ORCA-job ./opt_b97-3c_parallel
  N   -5.45662976862814     -1.86280646812203     -0.85855663004850
  C   -4.51942826246804     -1.22894181719257     -0.57138375649352
  C   -3.38519646925721     -0.49010018177503     -0.20930922049187
  C   -3.58142825497766      0.65719963045936      0.63902916926904
  N   -2.84933924208696      1.73187552667955      0.63608611239116
  C   -1.71308474318386      1.95011106699461     -0.04292507074570
  N   -1.62278105402391      3.26456748269796     -0.46533802004714
  H   -2.49540648817241      3.75906064961927     -0.37720649814693
  H   -1.14856698329605      3.41878556165209     -1.34042336713283
  C   -0.63061229009662      1.06392816904471     -0.20130333536342
  C   0.70796796008470      1.57074842984799     -0.25499283967264
  N   1.01874961247555      2.91310905032605     -0.26498996280382
  H   1.94382419982596      3.10732592339980      0.09689467224763
  H   0.30678524685615      3.53229562986242      0.09296877906588
  C   1.77486869269679      0.66718468956489     -0.21553527849365
  C   1.54979348758463     -0.73670939599712      0.02364843817839
  C   2.78157862956109     -1.34818068411433      0.24027607874945
  N   2.98815440764399     -2.73174848781129      0.49347041041952
  H   3.24966562331791     -3.22394839812865     -0.35403499048824
  H   3.75277473689429     -2.86344992766142      1.14393091114966
  C   3.78752962718684     -0.34035706811771      0.12112701710761
  C   5.16558010317977     -0.54562818813917      0.21932844216361
  N   6.31705900990288     -0.70861731731937      0.29694925387455
  C   3.16666119482535      0.89592700731672     -0.15611379024022
  N   3.81245886297434      2.13407377698180     -0.28519210934994
  H   3.65961811273656      2.55988409412850     -1.19016604866431
  H   4.80820789488817      2.05424407697615     -0.13252656322467
  C   0.24202124727922     -1.25525153713683      0.03358577016881
  N   0.10564162616206     -2.63479007395216      0.18681398461320
  H   0.97249749766287     -3.05624752344361      0.51291314605461
  H   -0.68254578866136     -2.91206738480102      0.75126639655481
  C   -0.84530924688927     -0.39734476079534     -0.16469855030039
  C   -2.11722835191831     -0.97410595600473     -0.56469179288417
  N   -2.08096715602674     -2.07560737930471     -1.34570257433077
  H   -1.20861239756756     -2.57373141175624     -1.42583138691107
  H   -2.92186916308094     -2.61066869956134     -1.48696085340177
  N   -4.65406448140715      0.64846505971759      1.46751500405604
  H   -5.34852408132715     -0.07086545198851      1.37683800141490
  H   -4.94545609936697      1.52681884555225      1.85714830305747
