25
Coordinates from ORCA-job ./opt_b97-3c_parallel
  N   -2.01355450382828     -2.74322249664710      1.06556096041071
  C   -1.73553665013421     -1.72086045826102      0.58709322015903
  C   -1.59972872351004     -0.38814158796948      0.12026832132113
  C   -2.85505096467995      0.24516011373244     -0.06109983626114
  C   -3.04550608810101      1.60421903483485     -0.39898994584113
  C   -2.14200972796550      2.62476033494894     -0.36398217084878
  C   -0.78352418480248      2.59454211432591     -0.05131161411344
  C   0.09268707733834      1.53071558642986      0.09393583336215
  N   1.37251135088578      1.95349647457457      0.31422595742720
  C   2.31403942681141      1.05072249710609      0.28144684866883
  N   3.65069521457885      1.24376179793158      0.42734534704669
  C   4.13872408798349      0.02996666813716      0.17355891231979
  N   3.25984631424231     -0.98269066008487     -0.15274630103381
  C   2.09114053722972     -0.36740538700188     -0.06457758776407
  C   0.78140063525158     -0.81560665171606     -0.24989259918509
  C   0.57502692911880     -2.13835620318873     -0.70787841273987
  N   0.45841534489460     -3.19643770667017     -1.16967747757500
  C   -0.27255613415882      0.10802575965802     -0.05771630081835
  H   5.19959185962679     -0.17122742119136      0.21740840575735
  H   -0.28858977188692      3.55222027225244      0.03369750182590
  H   -2.54074927495719      3.60787434099728     -0.57925657551101
  H   -4.06528527966269      1.87680363897576     -0.64355392322021
  N   -3.98626846071517     -0.49328598242739      0.05278260285532
  H   -4.87463491243424     -0.03484746128279      0.12353225933005
  H   -3.94724363572523     -1.45119033676467      0.35601214342757
