27
Coordinates from ORCA-job ./opt_b97-3c_parallel
  N   4.37062193271443      2.45295096049254      0.75275995129784
  C   3.63832504736097      1.57692981700232      0.52081045816222
  C   2.85673979362361      0.46063482530871      0.23159551337514
  C   1.47234177894027      0.32898638286673      0.12244947965424
  C   1.18408501843544     -1.09442513319940     -0.22481579553625
  C   2.38069667606505     -1.76883800078720     -0.36430793406758
  C   3.40983038339880     -0.83654879618822     -0.07976258354442
  N   4.71726348500833     -1.07996902359606     -0.08576714759010
  H   5.08041452419501     -1.98712493553043     -0.31315831661158
  H   5.37368386680692     -0.34973643783617      0.13412372170374
  H   2.51289006408577     -2.81024263005881     -0.60580256858677
  N   -0.06482886127612     -1.53481923578490     -0.29191682587259
  C   -1.03922126823173     -0.63770206041502     -0.09866437442043
  C   -2.32359815638848     -1.18109189918168      0.10323456122177
  C   -2.41331322743144     -2.60075580902386      0.13425443985032
  N   -2.59440527678423     -3.74648113736458      0.17694088339767
  C   -3.54381380978840     -0.51383755015839      0.31660155802099
  C   -3.83559829796480      0.81480525012471      0.22199424954313
  C   -2.93108100943268      1.84552712055265     -0.13421366076342
  N   -1.61080940148457      1.81922631431896     -0.09168350377936
  C   -0.74551035093819      0.82533035416271      0.02608242295568
  N   0.52374848801221      1.23949746285247      0.20742342421813
  N   -3.45106452902835      3.04054160163868     -0.50850143630644
  H   -4.43640741487756      3.21957891340017     -0.47311027111139
  H   -2.82255946243713      3.82036413040189     -0.58412515717851
  H   -4.86534386917056      1.10328192261671      0.39364079478543
  H   -4.37451587541224     -1.16286102441410      0.55910499698161
