31
Coordinates from ORCA-job ./opt_b97-3c_parallel
  N   -3.52184197379532     -3.54756544174218      0.12194710080632
  C   -3.08055104064419     -2.46866902620868      0.08745138458128
  C   -2.59651848166682     -1.16372586464241      0.04531963664910
  C   -1.25247061155924     -0.73230721453423      0.02907684533028
  C   -1.25251417589769      0.73231523540543     -0.02060802674771
  C   -2.59658056990213      1.16381852745160     -0.03218895928910
  C   -3.08065087165004      2.46880485703891     -0.07249618138026
  N   -3.52193709311066      3.54774805428397     -0.10555481380698
  C   -3.41899187322558      0.00007051749271      0.00801240830199
  N   -4.75240461284413      0.00010821887345      0.01014332667457
  H   -5.26640984739523     -0.86206738848648      0.04049356020809
  H   -5.26645638538651      0.86236638654736     -0.01687743549219
  C   -0.06351015445825      1.41558759190685     -0.04375413472890
  C   1.17295078086695      0.74118287059966     -0.02056761056627
  C   2.31642781837255      1.52241764545118     -0.03430170014971
  C   3.68324099569740      1.18578645657324     -0.00546168014435
  N   4.27759293392704     -0.00016753889373     -0.00518063553309
  C   3.68317580315817     -1.18609171335606     -0.00291037296603
  N   4.56547512865479     -2.23819319946946      0.02612626536608
  H   4.25189901838084     -3.14095618092584     -0.28051453706857
  H   5.51600643323678     -2.00635832193905     -0.20329433529529
  C   2.31644876261064     -1.52261816542668      0.03054714808477
  C   1.17298321166374     -0.74130992707826      0.02068020822754
  C   -0.06343501642692     -1.41564668982851      0.04812827941500
  H   -0.06574692066586     -2.49712568274210      0.08102195345920
  H   2.12483581832492     -2.58898088692662      0.07259142767231
  N   4.56548616430936      2.23784006756735     -0.03744796228378
  H   5.51680343230897      2.00601380840056      0.18868825157733
  H   4.25302230931876      3.14065077699754      0.27018028705246
  H   2.12474466943971      2.58879118240625     -0.07566974423410
  H   -0.06588114494207      2.49706709010424     -0.07661397901998
