31
Coordinates from ORCA-job ./opt_b97-3c_parallel
  N   6.02068851553525      0.44523765335835     -0.34147819305314
  C   4.87971944073075      0.25216841417019     -0.20779854020844
  C   3.50581976087591      0.00332232215753     -0.04382566827990
  C   2.66250578651410      1.13036993598682      0.20802984643963
  N   1.34653888532961      1.20725426353130      0.15916697227799
  C   0.39367577099975      0.29569333121898      0.06772074985448
  C   0.55484255630808     -1.17775044935867      0.16320953299896
  N   -0.50032726336982     -2.02016554221748      0.26282772054092
  C   -1.71813023424156     -1.52105442534195      0.16884656255617
  C   -2.93275934893947     -2.20356485718554      0.23225879599724
  C   -3.94708867713737     -1.25836415793135      0.04467353569271
  N   -5.26254785706009     -1.46390190944465      0.02464626275938
  H   -5.65327806453364     -2.37749462463726      0.16133033262145
  H   -5.89605782767340     -0.69487176969732     -0.11663000666654
  C   -3.37366686485823      0.07284972845912     -0.14108615750553
  C   -4.17666165640622      1.19447811048580     -0.34051641221118
  N   -4.95797163945286      2.04391151880841     -0.50197347880519
  C   -2.00030317060720     -0.07453975618986     -0.05942360147354
  C   -0.91853561453791      0.80162924712947     -0.09387956553504
  C   -1.09830382585370      2.19854875089907     -0.22421651577518
  N   -1.26474593165589      3.34153097908546     -0.33522621921662
  H   -3.05697334478915     -3.26204369800875      0.38430646106382
  C   1.77627375497829     -1.81648479851838      0.08598107835362
  C   3.09303913827276     -1.34263788650865     -0.07522294471883
  N   4.04130777337570     -2.29943010166413     -0.23360880380783
  H   3.76907028501982     -3.24790410063328     -0.40756239869713
  H   4.99561402612053     -2.05535894348599     -0.43047393961793
  H   1.67539893081940     -2.89430318882563      0.12166730176821
  N   3.25935296525357      2.31250449693327      0.48916235987217
  H   2.67394063527926      3.12872402795483      0.46890093775391
  H   4.25473420360380      2.43184113627030      0.43983011082137
