28
Coordinates from ORCA-job ./opt_b97-3c_parallel
  N   -5.40497062199135     -1.33871447735486     -0.00052620613390
  C   -4.27743790261491     -1.05322729859864     -0.00021722868129
  C   -2.90502549077559     -0.72413718691034     -0.00008540882546
  C   -2.02366374882571     -1.83015221120937      0.00062782615229
  C   -0.62032197662751     -1.78576008687200      0.00097359778045
  C   0.29170264165768     -0.75259233995692      0.00054416946483
  N   1.58313295673310     -1.19155330152500      0.00088829908664
  C   2.51057610677385     -0.26842820762736      0.00101116096623
  C   2.19339037297687      1.19054474149646      0.00100495385888
  N   3.30749738597324      1.93599784090016      0.00135323665627
  C   4.31424939185332      1.03342090609471      0.00153907731694
  C   3.91508039763730     -0.32593391262125      0.00142374458218
  C   4.73800569341902     -1.45685970124289      0.00171264042646
  N   5.42437226342286     -2.39516618444102      0.00231821797741
  H   5.34081249756638      1.37111813874204      0.00182135833012
  N   0.95327210851843      1.62307979889213      0.00069901964327
  C   -0.02401947998841      0.69019789990056      0.00039501177059
  C   -1.30984465375258      1.25537722130830     -0.00057417310448
  C   -1.32279735198931      2.67808288189866     -0.00113638839460
  N   -1.54190869691095      3.81895796565204     -0.00189459082861
  C   -2.61127932872460      0.66394955306696     -0.00066146145788
  N   -3.65971288970603      1.50967989962960     -0.00133229205805
  H   -3.51645933499822      2.50485896790153     -0.00180272176464
  H   -4.60526002232531      1.17237377625962     -0.00166422469018
  H   -0.12844602159935     -2.75084023412975      0.00138636762511
  N   -2.56151363017985     -3.07237241690604      0.00113465979725
  H   -1.96938534002345     -3.88067457721632      0.00128343106065
  H   -3.55369873019938     -3.22618021583132      0.00077356174268
