28
Coordinates from ORCA-job ./opt_b97-3c_parallel
  N   -4.29337855696332     -1.78143467146644     -0.13140567369703
  C   -3.33891247819361     -0.76093931848939     -0.04888785935025
  C   -3.80195987122743      0.55214158754593     -0.03492677444995
  C   -3.06197833047248      1.72250574818237     -0.01841096106915
  C   -1.69160048643854      1.90616176169177     -0.00484655653147
  C   -0.62502948662634      0.99883254309679     -0.00871567000706
  C   0.66483072360701      1.53255589365880      0.01190007185532
  C   1.79862804635452      0.73727621661404      0.00591582192372
  C   1.64221266646893     -0.73628554553277     -0.02333431073831
  C   2.91870760705464     -1.29747067874311     -0.02209298576735
  C   3.84212072989107     -0.23100517533454      0.00860586465868
  N   5.19856360291175     -0.36446810296928     -0.02810657780446
  H   5.58318327359315     -1.25660715042737      0.22771277012448
  H   5.74898638664101      0.42052697934140      0.27190603288733
  C   3.15717078942177      1.01485612214846      0.02333974482456
  H   3.62240254172456      1.98839393814561      0.03677664044434
  H   3.16547664153088     -2.34746764331430     -0.04640039444930
  C   0.37352009649398     -1.27574848372841     -0.04184575578716
  C   -0.78550209058344     -0.47929664750528     -0.03580035317119
  C   -1.99828170411155     -1.16217714846243     -0.05694886312905
  H   -1.87339210027953     -2.24104942254922     -0.08831781839537
  H   0.25285871961591     -2.35241316719935     -0.06389008126049
  H   0.77003434802308      2.61087042154565      0.03115899323877
  H   -1.38035453049053      2.94512201847790      0.01248442986249
  H   -3.64672965840640      2.63434515962772     -0.00821034642734
  H   -4.88002970153807      0.67526155227859     -0.04480234460898
  H   -3.99556543099328     -2.66682345076892      0.24375640281121
  H   -5.20271983260774     -1.53219537786424      0.22098284731304
