26
Coordinates from ORCA-job ./opt_b97-3c_parallel
  N   -1.75130432254307     -2.50471086682824      0.67992065298625
  C   -1.96415958630776     -1.26004351799722      0.18423046553564
  N   -3.22456422363837     -1.03033275690913     -0.12214190219596
  C   -3.77836576422855      0.14181669415539     -0.44489307789224
  C   -3.30895656569871      1.42273575664815     -0.27352371514044
  C   -2.00846139985866      1.80233353047446      0.07105115856713
  C   -0.85642515564818      1.03271899843962      0.15337526697656
  C   0.36307310352376      1.75014821637540      0.31017978864961
  C   1.56930756035013      1.12689447316178      0.19447125661324
  C   1.63332277250219     -0.30076946184030     -0.08821541143019
  C   2.99168094837417     -0.58356923889205     -0.19705309757671
  N   3.62087733063797     -1.79064564400286     -0.41117863040634
  H   3.13897155448400     -2.42307899017421     -1.02866874091706
  H   4.58897460031199     -1.67693998358552     -0.66754869030827
  N   3.75504744232512      0.54347713887014      0.01344321083610
  C   2.92691039364382      1.55665247716203      0.24188276676838
  H   3.29702413519055      2.55405231689917      0.42583744961587
  C   0.45120357257894     -1.03602832820477     -0.12385279579579
  C   -0.78346457387895     -0.42424650842538      0.01185716099523
  H   0.49445700820312     -2.10808528369102     -0.27173240839157
  H   0.30785468138033      2.82074883646444      0.46577421827032
  H   -1.85630783515362      2.86700364744754      0.20729225418277
  H   -4.02004783172995      2.21908751074119     -0.45213396512563
  H   -4.79316157734774      0.04271059062914     -0.81945592912949
  H   -2.57348585794116     -3.05876576809530      0.84815663315294
  H   -0.93665489993114     -2.69274298842318      1.23348388755935
