32
Coordinates from ORCA-job ./opt_b97-3c_parallel
  N   -1.60196560473495     -4.21099539854920      0.38848048127788
  C   -1.55581604206327     -3.05661498475414      0.24992461404278
  C   -1.58040063333919     -1.65859119382149      0.04744627337254
  C   -2.83241720838699     -1.15589657425123     -0.47103184704397
  N   -3.33237193743964      0.04632152925915     -0.32425740201133
  C   -2.73404632479993      1.12200481141880      0.18524193684619
  N   -3.59800310307665      2.04737745548481      0.66413816307161
  H   -3.28353581124258      2.97489591534365      0.88923265075613
  H   -4.56870883576278      1.91590733685626      0.44683987718694
  C   -1.34274475171713      1.40749047290952      0.19970234413831
  C   -1.02850527143371      2.71788496014025      0.61861695743362
  N   -0.89494887532957      3.79199223754360      1.04732914282247
  C   -0.27186645357051      0.50870266098645     -0.07089074355981
  C   0.99133245813142      1.00346621470819     -0.40242057030388
  C   1.17879421982356      2.29077805837992     -0.95175462639915
  N   1.42521102168261      3.29621690302618     -1.47969577267393
  C   2.15419659457951      0.22020764883290     -0.19637486855261
  C   2.02212579050828     -1.13026784497700      0.40420271956051
  C   0.76860354625354     -1.65930073749455      0.58211313227145
  C   -0.38998728667874     -0.94057641516515      0.22071971332615
  H   0.66375065508591     -2.69126970462329      0.88499596547183
  C   3.30825399947409     -1.65592736005831      0.57628584858147
  C   4.20236237012409     -0.69297964525783      0.09648517057048
  N   5.53859538415382     -0.78107530580968      0.05989609802945
  H   6.09835466732910     -0.02268310575796     -0.28207238205042
  H   6.01925695168479     -1.57891808783313      0.43236034167593
  C   3.47778023769708      0.46992245347959     -0.39209812632492
  H   3.92268820958192      1.36077970268978     -0.80510970897591
  H   3.56120272640595     -2.62605200004766      0.97047167332379
  N   -3.62290172937259     -2.03017120495601     -1.13735192463905
  H   -3.40605653403332     -3.00998017993320     -1.16025899343762
  H   -4.57507429803091     -1.75536607447377     -1.29852416898346
