27
Coordinates from ORCA-job ./opt_b97-3c_parallel
  N   -3.89766109968961     -1.67300241455713      0.24265790261421
  C   -3.19004592694343     -0.49083170043281      0.05763086596039
  C   -3.72720932634170      0.79637794874945     -0.07005976906693
  C   -2.69393800475227      1.75135861024492     -0.16431408239622
  C   -1.47730235191911      1.07747308242405     -0.08894864858847
  C   -1.77962798464288     -0.35767882587063      0.05568689784094
  C   -0.74958611458685     -1.25352684251373      0.10315821043645
  C   0.60743587689264     -0.85628087567677      0.03023419447440
  C   1.50650860454969     -1.92762965261700     -0.00307491709109
  N   2.82237256194397     -2.04194034930155     -0.14067777708929
  C   3.64497672868239     -0.99571094789047     -0.18088308069492
  C   3.43772404361796      0.35864335458570     -0.05973497111960
  C   2.23544087252675      1.09397990382819      0.04287933784293
  N   2.41620316734775      2.43757322159063      0.17191617149900
  H   1.67755064503277      3.00229727584027      0.54578116410484
  H   3.34300971855560      2.77117352754359      0.36184189394677
  C   0.91008577917792      0.58624500711770     -0.03457529814294
  C   -0.15900825961532      1.48461928440242     -0.11879145976052
  H   0.02555147374514      2.54146015070834     -0.26055700394086
  H   4.34501064931677      0.95275215845482     -0.05204068177731
  H   4.68843991974536     -1.28130506036547     -0.29646071061490
  H   1.02020733735273     -2.89738109330189      0.07762905939885
  H   -0.94909704806939     -2.31631143205545      0.17845716058202
  H   -2.83161817636672      2.81548913809007     -0.27660427759189
  H   -4.78427657021361      1.02164840415815     -0.09226560725891
  H   -4.84165210970211     -1.63698416579321     -0.10792380725117
  H   -3.42883344134446     -2.49006394806221     -0.11599459211582
