29
Coordinates from ORCA-job ./opt_b97-3c_parallel
  N   3.77801720932607      2.82732173038332      0.04031804102711
  C   3.30526190358145      1.76139463376853      0.02776972339348
  C   2.82009948568229      0.45662798616369      0.01243080797855
  C   1.49775898909312     -0.00166986115936      0.00835400293990
  C   1.53940497784497     -1.47347969267063     -0.00878957099554
  C   2.86975303529854     -1.87768711322742     -0.01487662848696
  C   3.66455078638927     -0.71145719229615     -0.00217427074788
  N   4.99929359335060     -0.64822285301772     -0.00224767679154
  H   5.46844095517159      0.24073017878464      0.00576898857211
  H   5.56304165239231     -1.47702475506745     -0.01402389579668
  H   3.23831277423594     -2.89048154919198     -0.02644443148626
  C   0.34323072872347     -2.16669384485538     -0.00816451534611
  C   -0.89796312742960     -1.52764478251840      0.00312877734450
  N   -1.93072046139919     -2.37968652456456      0.02748055780105
  C   -3.22270798488367     -2.12064442868036      0.03151875409341
  C   -3.94453245587033     -0.94177004254892     -0.01013060167366
  C   -3.48558400543118      0.37429537808740     -0.04701976386338
  N   -4.43026512317657      1.35569134855545     -0.14569343330585
  H   -4.17803226548986      2.31511452172577      0.01583019507775
  H   -5.38306738752657      1.11771844400414      0.05700555782831
  C   -2.11190192104784      0.75939867051637     -0.02206665394779
  C   -1.93763687754906      2.16793240591240     -0.01221108839577
  N   -1.90192767563813      3.32961815476918      0.00297543198392
  C   -0.93262852801502     -0.02169861186021      0.00085990091740
  C   0.28874634645607      0.66086383816308      0.01336708477891
  H   0.29562122881644      1.74152012767253      0.01721921762827
  H   -5.02159876961844     -1.06631274297220     -0.02244958724439
  H   -3.83454982641271     -3.01870229914371      0.06544200093989
  H   0.32211744602610     -3.24663404093207     -0.00625253382271
