28
Coordinates from ORCA-job ./opt_b97-3c_parallel
  N   -2.68740727187254     -3.39604088589464      0.04240656145748
  C   -2.34683455372310     -2.28280635618005      0.03671679151517
  C   -2.00329831422227     -0.91454651394454      0.03760563149602
  C   -3.11136702202161     -0.04287120244200      0.16238221294877
  N   -3.16861799342505      1.28334232661243     -0.03525328468172
  C   -2.17416736150424      2.12964294842399     -0.09711198856861
  N   -2.51785326852990      3.41816668075420     -0.34685703349313
  H   -1.82410497789681      4.09876311280154     -0.59267465425851
  H   -3.47343010504605      3.60976063396539     -0.58959649060424
  C   -0.77769939139850      1.91152928216208      0.12862313579545
  C   -0.06314231476507      0.75025466951496      0.13096038057613
  N   1.29535323086204      0.99303782265284      0.26046909382327
  C   2.10165904828228     -0.00680673114568      0.10288108992511
  C   1.67015687632062     -1.39380514070822     -0.18826288714815
  C   2.80897130044091     -2.16206334106308     -0.30479717221604
  C   3.93820799633268     -1.31634914176578     -0.09444503291352
  C   3.54695128503465     -0.00893540418423      0.15530518037975
  C   4.36165495212709      1.10091989182188      0.39453767674415
  N   5.03318733025975      2.03029042913114      0.59221198669835
  H   4.96570733073736     -1.64495516672359     -0.12406278121596
  H   2.85627147778308     -3.21945054428312     -0.50843219234144
  C   0.30438066428312     -1.64007361035913     -0.23521870837985
  C   -0.60504600041576     -0.60892457705555     -0.05049332345282
  H   -0.05317221426610     -2.64972703846781     -0.38145317024236
  H   -0.16771991382502      2.79606290671805      0.25715342809216
  N   -4.32600698316988     -0.56746425335759      0.46765934164806
  H   -4.47449291192848     -1.56085385309394      0.46466442683367
  H   -5.12068258695321      0.02570054401046      0.31441307618285
