24
Coordinates from ORCA-job ./opt_b97-3c_parallel
  N   -3.75699170622507     -1.75026888889164     -0.05042329301476
  C   -2.84259947898065     -0.71495756794991     -0.03391383110683
  N   -1.57970982180356     -1.12315923301807     -0.04229099616333
  C   -0.42801230452846     -0.46390307304539     -0.04644121202140
  C   0.70597432066243     -1.29624973236935     -0.08529088541730
  C   1.97582242157018     -0.77394868657502     -0.05044805236514
  N   3.15698411006445     -1.43421442083527     -0.07253394145899
  C   4.08742179353201     -0.45554149548347     -0.00568692235843
  C   3.56537388119220      0.85027186571104      0.06138359942798
  C   2.18279372230005      0.68859363074198      0.03516831503658
  C   1.08556627351352      1.52838491727887      0.06265733544412
  C   -0.21855188280284      1.02637530455438      0.01719617574754
  C   -1.25962234215196      1.95045301043067     -0.00581616443272
  C   -2.63559566865799      1.76989607279757     -0.05960551279362
  C   -3.35081225648387      0.59483003690925     -0.08280292329400
  H   -4.42959199463315      0.68635774496731     -0.14315605407302
  H   -3.22364380873462      2.67841496019954     -0.09085114491409
  H   -0.93875595662073      2.98610357100164      0.01668165001273
  H   1.21934288935508      2.60238098919927      0.11297945576989
  H   4.12420803306194      1.76982679792777      0.12010681162239
  H   5.13743090650751     -0.71744658074255     -0.00712171419615
  H   0.54642754444690     -2.36323750137125     -0.13138278191598
  H   -4.66612017248957     -1.57974450606362      0.34181409928321
  H   -3.36224307869381     -2.64604250037375      0.18067969288131
