29
Coordinates from ORCA-job ./opt_b97-3c_parallel
  N   4.08027463407327      0.05719164490402      1.27765224757402
  C   3.02195790895878     -0.03254095481876      0.43664059018008
  N   2.58260882482472      1.12794573782512     -0.04700463828676
  C   1.34647494798748      1.35867523061931     -0.46099684433653
  N   1.21766549352501      2.47251993061123     -1.20987754945396
  H   0.29905070502856      2.83340190994266     -1.41486403894924
  H   2.00843592998220      3.09025453829963     -1.26103834808960
  C   0.16238341952320      0.57916885671030     -0.16814760055277
  C   -1.08619323988354      1.21098861585894     -0.00712370762939
  N   -1.21256919108299      2.61261329438274      0.01411319752816
  H   -2.14060509335718      2.88767995866998      0.29332760074938
  H   -0.53894301310346      3.06781210763652      0.61283979844529
  C   -2.24924652734078      0.44745359745901      0.10993991529378
  C   -2.17650371491638     -0.99885671580129      0.08672910101010
  C   -3.49657288556073     -1.43619755591861      0.27846443399157
  N   -4.34110716976398     -0.39206923723450      0.40031210295314
  C   -3.60349745409142      0.74212183263834      0.31465569016858
  H   -4.08917446438837      1.70565677885829      0.38099742043126
  H   -3.85757954440759     -2.45310926893720      0.32362781567456
  C   -0.94936303991177     -1.62239325846654     -0.05605066276248
  C   0.22127336237893     -0.87844486790877     -0.17350057640667
  C   1.45493856851172     -1.60749450835766     -0.32095530904516
  N   2.66099851680522     -1.26854503377659      0.10707142154501
  N   1.39856668278007     -2.84964916868182     -0.85715507072715
  H   0.63123077825467     -3.11703233770263     -1.44214168807262
  H   2.26433266519068     -3.35009924714074     -0.94606286728780
  H   -0.89150496400909     -2.70073322353037      0.00719151804923
  H   4.55826679716201      0.93778707113292      1.33227612558571
  H   4.60731232553069     -0.77878021817352      1.45227537742022
