29
Coordinates from ORCA-job ./opt_b97-3c_parallel
  N   -5.81694992791781     -0.56075081386150     -0.00052813137214
  C   -4.67003532169496     -0.36550833738118     -0.00019637244051
  C   -3.28195967563236     -0.11834564834565      0.00012717136067
  C   -2.89836036591570      1.23770146936728      0.00055502316908
  C   -1.58102522595236      1.73984619367933      0.00092116633704
  C   -0.33429041587396      1.15357833221817      0.00093980132091
  N   0.66337865495767      2.09054659400047      0.00136609377240
  C   1.89752940112993      1.67569760807940      0.00140476898821
  N   2.99045058640396      2.49625332215148      0.00180982360780
  C   4.02810396443386      1.67107913859251      0.00169872118327
  C   3.69084949923780      0.27219616384009      0.00120298629867
  C   4.60303739739092     -0.78814340258731      0.00100155165040
  N   5.39250056730229     -1.64213698854258      0.00081445250859
  C   2.30012309530938      0.24928996825980      0.00101174652724
  C   1.29922715570320     -0.71093073883892      0.00056834199472
  C   1.61133632067274     -2.08920907063780      0.00014243990963
  N   1.81588759820659     -3.23244840471051     -0.00044873427148
  C   -0.06679646856583     -0.29448731275540      0.00054783669691
  C   -1.04043567420139     -1.28096789775227      0.00016136644243
  C   -2.43931502183700     -1.26326239410294     -0.00000843082586
  N   -3.04298511497599     -2.47812087439297     -0.00026988547817
  H   -4.04125454718836     -2.57870281703494     -0.00089448809751
  H   -2.49530390939026     -3.31724199715934     -0.00085135571432
  H   -0.63672755131013     -2.28588385288927     -0.00004341937642
  H   5.04005967327755      2.05161571699441      0.00195795788198
  H   -1.50773845774318      2.82003110494221      0.00124903070340
  N   -3.87117938866724      2.17956941586651      0.00063880069505
  H   -4.84583825188809      1.93894804536132      0.00038647593930
  H   -3.63555838827126      3.15317088923956      0.00089022348871
