29
Coordinates from ORCA-job ./opt_b97-3c_parallel
  N   -5.11693695766209     -0.27130434864518     -0.04196612686584
  C   -3.76242123118540     -0.12629052728970     -0.01032363398906
  C   -2.98549268362166     -1.27001113453484      0.14133539498443
  C   -1.59896429154786     -1.39286758017667      0.09699487072054
  C   -0.55807324022651     -0.48789913196788     -0.01848130482479
  C   -0.72716951653779      0.98353934732864     -0.02229183759339
  C   -1.97619360637315      1.63112038177546     -0.12345798786840
  C   -3.27234185468683      1.19682430039435     -0.15644550165535
  H   -4.02734724016595      1.96622769164358     -0.26711693792052
  H   -1.88323743632476      2.71046232942053     -0.18601155704605
  C   0.38695487762542      1.81238856241963      0.03264987864453
  C   1.66960164704896      1.28484246518387      0.10183595128274
  C   1.85083535800611     -0.15508935623395      0.08464019674187
  C   3.24974294074654     -0.34582588512986      0.08453763268682
  N   3.90107153781980      0.82482567326754      0.07567979924090
  C   2.96002379133567      1.81293377566075      0.07545159509139
  H   3.25389696368124      2.85105077859435      0.05612744939202
  N   3.91318203307448     -1.58671126331547      0.05450478674140
  H   4.90074132833216     -1.42655093984997     -0.09722784222179
  H   3.81278885815648     -2.08963702062815      0.92834010707470
  C   0.77880363337635     -1.01824560618572     -0.06727933598495
  N   1.01972986011355     -2.36738167395786     -0.21797061206193
  H   1.98492171893275     -2.56955190752272     -0.44880191587462
  H   0.37767087651907     -2.86231313976968     -0.81279669631989
  H   0.24253875666297      2.88537140116574     -0.00343063220617
  H   -1.28417100457927     -2.42089943023244      0.22851390376544
  H   -3.52905838088412     -2.19716992508270      0.28092566431402
  H   -5.69709346873642      0.53746709756510      0.08646243929573
  H   -5.52062692929974     -1.14348836459672      0.24787139845616
