31
Coordinates from ORCA-job ./opt_b97-3c_parallel
  N   -6.13128433526810     -0.12435383940917      0.00022562361687
  C   -4.96810656183010     -0.13024977920600      0.00014731708608
  C   -3.55781927289227     -0.14422650691952      0.00002165790440
  C   -2.95449593316407     -1.42105948399350     -0.00086577512774
  N   -3.76002639545725     -2.50923626165389     -0.00154546975091
  H   -3.36846758822901     -3.43143769870891     -0.00198914873358
  H   -4.76099071431092     -2.43225327395688     -0.00122535461183
  C   -1.57393377079952     -1.69531217358096     -0.00119772183859
  C   -0.44351161141881     -0.90512274031934     -0.00073462886140
  N   0.69895332787854     -1.65082106649642     -0.00137869228104
  C   1.84770307078362     -1.03304707007056     -0.00089319918548
  C   2.01145672976387      0.43786153191702      0.00034416065997
  C   3.38846278630787      0.70241695303502      0.00065044996301
  C   4.02878986463165      1.94862267155729      0.00186331249066
  N   4.58731839464885      2.96823760241498      0.00300921861725
  C   4.06017083470499     -0.55138182079981     -0.00038530735473
  C   3.15127974627093     -1.60912188202441     -0.00135543651697
  C   3.44262888864586     -2.97899780590115     -0.00249822466296
  N   3.67702287350729     -4.11727147768218     -0.00340245515421
  H   5.13276209113382     -0.65999150931147     -0.00040921479483
  C   0.86187535498088      1.20755534287744      0.00091832187775
  C   0.92730947661466      2.62023928029637      0.00198388970218
  N   0.91198962798176      3.78115416326655      0.00288544958244
  C   -0.42138186532601      0.56651075076848      0.00038956466819
  C   -1.54077069256214      1.37621147095133      0.00095956205294
  C   -2.92137985616345      1.12353864213389      0.00084030416543
  N   -3.71452578744083      2.22283969791601      0.00186471769359
  H   -4.71606686714602      2.15885674752214      0.00090309435958
  H   -3.31231218599833      3.14071228331251      0.00156471937270
  H   -1.31203743532722      2.43459832942034      0.00175953378805
  H   -1.31841207202056     -2.74749172375521     -0.00198700302679
