29
Coordinates from ORCA-job ./opt_b97-3c_parallel
  N   -1.29188319970407     -4.14969371470943     -0.03775971318189
  C   -1.32527314195130     -2.98592995886706     -0.02535536109088
  C   -1.43729598529994     -1.57962328888620      0.00168402616978
  C   -2.76595890657748     -1.10521650263320      0.15374348540324
  N   -3.24031886839515      0.12051418698653     -0.05462476874427
  C   -2.58493286156099      1.25240066863268     -0.16757094767066
  N   -3.34057644596931      2.30448247244139     -0.55096786311942
  H   -4.33460158293190      2.16917535568694     -0.58011902227098
  H   -2.98226027100442      3.24231665306494     -0.51618067626246
  C   -1.19321389082216      1.51641048118425      0.11165759329563
  C   -0.86716282292811      2.88911403188627      0.26214937215614
  N   -0.79250680660485      4.04639002235136      0.34473863790136
  C   -0.12406681243443      0.62120777007537      0.16767762153090
  N   1.05557349506783      1.24263867707448      0.38937239393594
  C   2.16580283739432      0.55659550749497      0.24127638078622
  C   2.18331377474655     -0.87316241572842     -0.17730677676779
  C   3.50927073962503     -1.21066491586694     -0.26603796495286
  C   4.20770120275707     -0.00798615468942      0.10555783083623
  N   5.53043214754095      0.13388339533649      0.17128741191511
  H   5.91046541064042      1.02352083323609      0.44392932111188
  H   6.15629369806306     -0.61690528334436     -0.05091005002008
  N   3.40620751510987      1.04024906495579      0.40805494841367
  H   3.95034757680150     -2.15786116384946     -0.53046556809685
  C   0.96444347027225     -1.52638233541264     -0.30263774466816
  C   -0.22087210333519     -0.83984446861496     -0.07919136249367
  H   0.93573698005472     -2.58606499488338     -0.51247154038000
  N   -3.73398944376605     -1.99205627708242      0.50077476917283
  H   -3.54833221339119     -2.97909859516068      0.50688149752433
  H   -4.68246801909697     -1.69530165377909      0.36117362916681
