23
Coordinates from ORCA-job ./opt_b97-3c_parallel
  N   -4.97553679360977     -0.34977643055183      0.20832238934023
  C   -3.64930255850567     -0.23369436625092      0.11042357141999
  C   -2.80244975863235     -1.15324300889543     -0.56065629957104
  C   -1.51467906730492     -0.68099671250527     -0.40151927370080
  C   -1.59175590178556      0.63914906998551      0.34853488361955
  C   -2.90342816731210      0.85547408220779      0.67807037856364
  H   -3.31808688829802      1.71301866176005      1.18178723544741
  N   -0.52733879533993      1.43669783849243      0.46696517567298
  C   0.61261949188376      0.94146592683999     -0.00324461118977
  N   1.58572319626450      1.79943585644902     -0.29193448892980
  C   2.83291363246302      1.50912706375751     -0.61907418731958
  N   3.59195019332134      0.46370952326565     -0.34652644030892
  C   3.05640796579041     -0.68626643153265      0.09132233272564
  N   3.88913471852360     -1.49340183227062      0.78061093229256
  H   3.62388667486451     -2.45330749084034      0.90560631927034
  H   4.86248049477392     -1.25030726531511      0.81081003488619
  N   1.85208263025009     -1.20617204801594     -0.17201108144598
  C   0.73012366475651     -0.53807821613036     -0.33835254754101
  N   -0.35101406041341     -1.24671427696394     -0.69248944722952
  H   3.35679266396273      2.31879108322499     -1.11897572590722
  H   -3.10262990879389     -2.07743134266079     -1.02556394730532
  H   -5.52112716430469      0.32848244915838      0.70716087221667
  H   -5.46448964635423     -1.11225078350805     -0.22349889350612
