21
Coordinates from ORCA-job ./opt_b97-3c_parallel
  N   4.58139686938612      0.00825259641952     -0.04918394176790
  C   3.25452097189871      0.00076017474813     -0.02096474281504
  N   2.56997998776261     -1.15608052730851      0.23880782164308
  C   1.30970545063988     -0.74041089967892      0.16275563498126
  C   1.29330977646152      0.71939132181405     -0.12460807405489
  N   2.54624440859844      1.14765318488036     -0.24975536593736
  N   0.17956448180442      1.42889851476757     -0.16311858610579
  C   -0.95998863035228      0.73891556311248      0.00613268641589
  N   -2.03721312081252      1.52666172980739      0.12043241275730
  C   -3.31707867185966      1.23566495978184      0.13765268618616
  C   -3.99075478142008      0.03037902662663     -0.06789062537134
  C   -3.42016655596044     -1.22439360332512     -0.13449701409348
  C   -2.08315633442754     -1.55727423672864     -0.00150986501342
  C   -0.94479123134559     -0.75278489217303      0.12255061248149
  N   0.20134201634613     -1.45146634792384      0.25898398673846
  H   -1.84409504585185     -2.61311035802368      0.00260392999232
  H   -4.09829701671287     -2.05811272239486     -0.26931047321088
  H   -5.06981794926170      0.09521692770941     -0.13454205605822
  H   -3.95159269082923      2.10435761487324      0.29730812466324
  H   5.07072703984492      0.86383391053854     -0.23736101196708
  H   5.08912558079089     -0.83810408282255      0.13148806063604
