33
Coordinates from ORCA-job ./opt_b97-3c_parallel
  N   2.41899687243962      1.92320772502490     -1.37477654060307
  C   2.44732578951573      0.94620852834753     -0.44013377625395
  N   3.64905612637110      0.57188214306088     -0.06552336479543
  C   3.94901129800927     -0.53576203672785      0.62952259962392
  C   3.23363158911586     -1.69262816002825      0.78422323502717
  C   1.91336349846932     -1.93007331290014      0.36291261558568
  C   0.94845248933334     -1.01746607928837     -0.00292968609459
  C   -0.38508401074216     -1.53271983644880     -0.26432284787661
  N   -0.57093740451074     -2.85837010658861     -0.57485030094380
  H   0.14869126851050     -3.27347609203966     -1.14183125835176
  H   -1.50727787788951     -3.06881173336028     -0.89845393857705
  C   -1.45507680794159     -0.68697443640012     -0.07619175688177
  C   -1.25461632898552      0.72022442637638      0.18900655529082
  C   -2.51323746463588      1.30722877960942      0.26096858989063
  N   -2.75433815954702      2.68864674665900      0.51617650042214
  H   -3.62064560651453      2.98846207139648      0.09001884057838
  H   -2.83632625787407      2.86978018384729      1.50991260833172
  C   -3.49925691712357      0.29497172721721      0.04934207785837
  C   -2.86474189725065     -0.91720326999259     -0.15087747263930
  N   -3.43523754274224     -2.19149946850497     -0.39028871815690
  H   -3.35423207517578     -2.79557283476032      0.41955599354979
  H   -4.41747802043504     -2.11425720662681     -0.61326271015182
  H   -4.56856316572297      0.45283018300390      0.08784433055725
  C   0.04795306824881      1.27532214234218      0.11906755683838
  N   0.16092458570739      2.67261668971086      0.04011762407812
  H   0.87792340762071      3.06124327904965      0.63303856813191
  H   -0.73477115488311      3.12391916326860      0.19335760768723
  C   1.13895025941385      0.43402128591138      0.00038862587990
  H   1.58718533077783     -2.95954988685317      0.44292049299489
  H   3.74894237046171     -2.51695457917395      1.26158184908026
  H   4.95289854244106     -0.52014345833481      1.04484818777321
  H   1.56747918487026      2.45762072950988     -1.48069592236475
  H   3.29508406616819      2.37764758209318     -1.56824031718871
