33
Coordinates from ORCA-job ./opt_b97-3c_parallel
  N   -4.59849930827608     -0.22789298654016      1.21801754016416
  C   -3.49446638730628     -0.11940801463596      0.43345997591676
  N   -3.12976605489929     -1.27201974895682     -0.15864526924044
  C   -1.87615835811760     -1.55945863645353     -0.45109812468977
  N   -1.72584996653842     -2.78468709819043     -1.03264061185536
  H   -0.94118590512966     -2.94009137821175     -1.63731677683260
  H   -2.58168968952475     -3.25892667531493     -1.26301995095494
  C   -0.67243031408009     -0.81775377736849     -0.16878058530584
  C   0.49416152960936     -1.55516282422784     -0.01523995875166
  C   1.72385332962199     -0.93153596633905      0.07814989172844
  C   1.80605572388619      0.50701461652913     -0.07238480423736
  C   3.17700774917758      0.80596577483818      0.04422449940140
  N   3.77350860619392      2.07362476218671     -0.00174284278784
  H   4.76986769426438      1.98069384916455      0.14179705422619
  H   3.61487392009450      2.54306607087068     -0.88412568962537
  N   3.90576850547331     -0.30251628775608      0.27633580896145
  C   3.04245812212349     -1.34969249366029      0.31631092779484
  N   3.51668756358208     -2.64120122205707      0.48491120709648
  H   2.91456643267174     -3.22982473575586      1.03855978506772
  H   4.45645240213218     -2.64247118198397      0.85093176451690
  C   0.66181128980914      1.29422746490529     -0.13369135245633
  N   0.83297296195282      2.66599120018692     -0.10249788876676
  H   1.71315279845005      2.93660448984296      0.31483403082903
  H   0.04905371177861      3.19432687508409      0.24881943296435
  C   -0.62704640109588      0.66124339964259     -0.18404393960464
  C   -1.81116596956679      1.42690052144047     -0.19963689676822
  N   -3.02172471289031      1.09635975750117      0.27493840722894
  N   -1.78998759314007      2.74564869085625     -0.62288496500565
  H   -1.18354195646123      2.95880314046936     -1.39782511492749
  H   -2.71626094436035      3.13230584454026     -0.69989568117832
  H   0.42455772404144     -2.63259864417507      0.06013990306048
  H   -5.13951429276342     -1.06829593060853      1.13046489793211
  H   -5.07939235321239      0.61919585677718      1.46017763889905
