29
Coordinates from ORCA-job ./opt_b97-3c_parallel
  N   4.41861621888748      0.31008013821820      0.92570315383130
  C   3.19825310019321      0.37376720093915      0.34002438167168
  N   2.60281215252787      1.55879861589182      0.43219722496596
  C   1.33600562276834      1.77559133663334      0.08462903807194
  C   0.26631394464746      0.92392591564279     -0.13691764907996
  C   -1.03889777634595      1.51604361845486     -0.29578177946673
  N   -1.20688058339130      2.81165909381694     -0.67217898277329
  H   -0.42105181215725      3.41165448194765     -0.82827414707922
  H   -2.06684892344845      3.27057099544333     -0.43441515605728
  C   -2.15310080658507      0.72402125247533     -0.03571625363224
  C   -2.00779672252477     -0.66145929558606      0.32614010606625
  C   -3.30116349664106     -1.11227198016465      0.57390055442148
  N   -4.21894397637121     -0.11769539896875      0.39559539867341
  C   -3.54179142770468      0.97666727341598      0.02536405703126
  H   -4.06546753815002      1.90122800655267     -0.17453396556536
  H   -3.63376262978353     -2.09971125304924      0.86105969233701
  C   -0.75179043582465     -1.29876637039623      0.23476192076466
  N   -0.70598340322449     -2.69589251935242      0.34399488062186
  H   -1.57111691590324     -3.08186077948969      0.68382325648350
  H   0.06677673224507     -3.03979197743940      0.89313484790779
  C   0.37237498230922     -0.53761241323594     -0.04561374441170
  C   1.61089251363467     -1.14783818278177     -0.51157974383924
  N   2.84967126167960     -0.75027495522918     -0.30990355107125
  N   1.50179295686756     -2.25369061890788     -1.27470905802495
  H   0.61700323812033     -2.72922503565555     -1.34550320089569
  H   2.34583372863838     -2.75306262732398     -1.49256228667697
  H   1.11302121203388      2.83758989529005      0.08472147408056
  H   4.83715397427963      1.17487999072927      1.21618407653635
  H   5.01461116352305     -0.46246271767063      0.69322060960938
