29
Coordinates from ORCA-job ./opt_b97-3c_parallel
  N   -4.30345920792999     -2.54806012671121      0.39790400192706
  C   -3.66383413432274     -1.58107882067345      0.26430100262684
  C   -2.97063997000548     -0.38670150555136      0.09938868239143
  C   -1.59404331341175     -0.16315425178286      0.04480764275422
  C   -1.39292310241895      1.28964659590796     -0.15459708896845
  C   -2.64995883865102      1.90438170971975     -0.21489609213515
  C   -3.61528698523372      0.90292479994953     -0.06315225736896
  N   -4.94696329722011      1.04462576189903     -0.05332144010500
  H   -5.54358707619314      0.24121720697527      0.03581148149976
  H   -5.37904902409033      1.93718235448770     -0.19773373938493
  H   -2.84641693817985      2.95551272029757     -0.35094838012185
  C   -0.10947930462761      1.77679971738803     -0.23026056291142
  C   1.01146916207508      0.93118673458188     -0.11584285972058
  C   2.25583059181862      1.52125546842418     -0.07186774208864
  C   3.53817442026157      0.94316393560587      0.09407111289688
  N   3.90131060759304     -0.32253368711786      0.08814235634228
  C   3.06521335761698     -1.36453045100077     -0.05298897871704
  N   3.71866058607057     -2.55665094567532     -0.17467366580373
  H   4.69157382200628     -2.53565278135000     -0.41646082430643
  H   3.17171173400178     -3.35284625659716     -0.44460139001201
  N   1.74555794452664     -1.48647421722781     -0.01134831885226
  C   0.79810197969496     -0.54791986571978      0.01176939746119
  C   -0.51053438414055     -1.01732037162341      0.11629278868097
  H   -0.64955037995232     -2.08408643929930      0.21668985836846
  N   4.57978191962926      1.82976313383973      0.21697901804222
  H   4.38911941576347      2.74880317040629      0.57310882014768
  H   5.44919689549009      1.42173594480102      0.51467495572136
  H   2.25486476917125      2.60362280807903     -0.14486654478166
  H   0.06069586395803      2.84031452376742     -0.34410748078219
