28
Coordinates from ORCA-job ./opt_b97-3c_parallel
  N   3.42414112311204      2.82560149133444      0.00385590691412
  C   2.84982629458947      1.81535288529628      0.00300757444203
  C   2.40865053974745      0.46178039110369      0.00204891701055
  C   3.46671673516575     -0.48373111909051      0.00259631743597
  C   3.29543878388096     -1.88057671589851      0.00118470314064
  C   2.14269185539931     -2.61861772874797     -0.00060901062290
  C   0.81104864900898     -2.20981735530961     -0.00142234616048
  C   0.24408487866202     -0.94687316588000     -0.00083650327439
  C   0.99809398308950      0.31914463838351      0.00068644625802
  N   0.38643506557158      1.51286433930321      0.00086059665664
  C   -0.93266875960110      1.57345816981532     -0.00022733730124
  C   -1.80634868342301      0.36884930564510     -0.00165172329853
  C   -3.13359646359617      0.82615700777571     -0.00245440489332
  C   -4.31394757097733      0.07297187673992     -0.00379053981450
  N   -5.31412908677313     -0.52048693308112     -0.00458416990640
  C   -3.07382343209901      2.24872521034331     -0.00157339127193
  C   -1.75639043894036      2.70103348854286     -0.00024817173606
  H   -1.42181809484310      3.72391132254458      0.00063311834427
  H   -3.95168467683506      2.87638137295168     -0.00191470974260
  C   -1.18857144670018     -0.86408375750863     -0.00198574473559
  C   -1.95358088701944     -2.05675378785889     -0.00360320761456
  N   -2.54857783278860     -3.05293535298751     -0.00525215874267
  H   0.10233596944442     -3.02748688990217     -0.00272530125752
  H   2.28510638104215     -3.69133646403254     -0.00147549048282
  H   4.21597607980093     -2.45307530599955      0.00175488480164
  N   4.74376029954234     -0.02966494663513      0.00532697581208
  H   4.95194311221087      0.95309739150329      0.00335340333014
  H   5.51299232512872     -0.67054901315074      0.00153291910940
