28
Coordinates from ORCA-job ./opt_b97-3c_parallel
  N   3.10707893267044      3.04067991538682      0.30314804942131
  C   2.76422971005082      1.93623870376018      0.18164302509202
  C   2.44244510621367      0.56293017772058      0.04516992137462
  C   3.57116944955296     -0.29192414659807      0.14656947980511
  N   4.77265109730376      0.24947596472993      0.48471714627861
  H   5.60172345498820     -0.30310604749686      0.37360153862521
  H   4.90083727026826      1.24632955492600      0.48907388413228
  C   3.54703948591788     -1.66866651677370     -0.11639096583817
  C   2.45965574637242     -2.47191541198610     -0.36913737110576
  N   1.15680737575542     -2.26315691415459     -0.26609696271865
  C   0.49332611301398     -1.13023622094908     -0.09460397555524
  N   -0.82571335164596     -1.31918002251897      0.08541738436597
  C   -1.63208286088605     -0.27920131627989      0.05029208076460
  C   -1.18196287361861      1.10537991005349     -0.24683194416105
  C   -2.29289497044012      1.92562504721833     -0.30675527967666
  C   -3.42506961942340      1.11699725238978     -0.02955206387232
  N   -4.69309188962416      1.52213158078231      0.02468492595605
  H   -4.94658683063318      2.47714419588141     -0.14704788613940
  H   -5.42896442064437      0.86686494364625      0.22759237426854
  C   -3.02437999593989     -0.24575595900006      0.19648672902277
  C   -3.92699924932284     -1.27115719151261      0.46918298818002
  N   -4.76168424385639     -2.05253520425297      0.69307151526033
  H   -2.31375512273246      2.98616187114955     -0.49955960104131
  C   0.18156291811050      1.31975334022421     -0.32818606948135
  C   1.07035414174307      0.25909816874972     -0.16430899135086
  H   0.55924795771033      2.32602215455639     -0.44470755018235
  H   2.70254763005946     -3.49640673550984     -0.63927011343693
  H   4.50914747943624     -2.16788870234221     -0.13512565088742
