29
Coordinates from ORCA-job ./opt_b97-3c_parallel
  N   -4.42691812682047     -2.58599698947191      0.39574216329097
  C   -3.77959316191855     -1.62543907224675      0.26690169156840
  C   -3.07093301861638     -0.43695657239262      0.10612129198018
  C   -1.68573765818166     -0.21917410393256      0.08732002944395
  C   -1.46483771076440      1.22868431492014     -0.11919710110604
  N   -0.24474931204308      1.76927727155021     -0.14558654651833
  C   0.81689480379955      0.98440188216942     -0.02446403745529
  C   2.04283151738809      1.68950764144674      0.09935648702372
  C   1.95135238180963      3.10790906631400      0.15021043287901
  N   1.99162302981481      4.26659976110865      0.20608180674524
  C   3.34854410051030      1.20183513390372      0.21694902637499
  N   3.85503346802338     -0.00235404959031      0.08933496966522
  C   3.19697505296452     -1.14358017014465     -0.09836137937012
  N   4.00588035882142     -2.18231577364348     -0.39694389006485
  H   4.99483202628027     -2.01862533830044     -0.34153197858665
  H   3.67205901657331     -3.12653470030136     -0.46386587709892
  C   1.78830497752999     -1.39698877724390      0.03131388605143
  C   1.47255404293212     -2.77835041587229      0.06748485645179
  N   1.29908400472439     -3.92770930448264      0.08068582629241
  C   0.70559899426915     -0.49709872586407      0.07898364418736
  C   -0.59097243561916     -1.03656260259347      0.17941494094327
  H   -0.72213325603309     -2.10364796288670      0.28625884494333
  H   4.09668629986970      1.96293844792627      0.41031438595968
  C   -2.68659388066898      1.85253034837501     -0.23340066457444
  C   -3.68456573515857      0.84191023499675     -0.09555838891131
  N   -5.00003995398383      1.03451607119268     -0.14328981316055
  H   -5.39153607355618      1.94711830705741     -0.28592895275125
  H   -5.63506502145202      0.26192205003317     -0.03295274019293
  H   -2.86053978789421      2.90444451167285     -0.38573954771024
