27
Coordinates from ORCA-job ./opt_b97-3c_parallel
  N   -3.87972819723519     -2.81225015223774      0.03474352948500
  C   -3.31888216058728     -1.78931935843609      0.02299303167426
  C   -2.69500573605618     -0.54539837328050      0.00786946308200
  C   -1.31557477507655     -0.25154454177694      0.01338665339131
  C   -1.17713708196472      1.22259096351931     -0.01011035246216
  N   0.00506579217959      1.84620334717592     -0.01014999729910
  C   1.11626617356612      1.10883939619117      0.00792659047026
  C   2.31373466160109      1.84328422758157      0.01494149444498
  C   3.63513555197174      1.44218720761139      0.02628982362863
  N   4.22019472378888      0.24857386939454      0.01965918481375
  C   3.58324321035820     -0.91587340370821      0.02943157002753
  N   4.41677346900383     -2.00443003524040      0.07151494725221
  H   4.07684058585615     -2.89761939639329     -0.23474437348139
  H   5.38239861327061     -1.80866170494311     -0.12760800402602
  C   2.19593394519786     -1.19280815774215      0.04631704928567
  C   1.08401679506199     -0.37518607795437      0.02730857726711
  C   -0.18273911015304     -1.00839896460978      0.03288595743656
  H   -0.23371993426315     -2.08978327025187      0.04982053752720
  H   1.96117130961829     -2.25229618858535      0.07879616908684
  H   4.35366012354789      2.25632199249967      0.03021164019285
  H   2.15225122178124      2.91331158686111      0.00801436044763
  C   -2.44164743110188      1.77693625218860     -0.02917692210505
  C   -3.37858527067887      0.70579344821174     -0.01838291730940
  N   -4.70998570652587      0.83142355605936     -0.03324549164297
  H   -5.14979105702744      1.73172622104981     -0.03942622989857
  H   -5.30029476381550      0.01863960020066     -0.01415680216747
  H   -2.67895069561778      2.82782919781495     -0.04865432522165
