29
Coordinates from ORCA-job ./opt_b97-3c_parallel
  N   -5.68437879318113     -0.71247447638404     -0.49973458007459
  C   -4.56207805792938     -0.46768622084719     -0.30690462251438
  C   -3.21542641578829     -0.14187272580761     -0.06976369599498
  C   -2.30601128273299     -1.22837073402699      0.23328832869367
  N   -1.00101487442069     -1.23257751161739      0.22158429595636
  C   -0.09351796541997     -0.25672819389505      0.11121139803141
  C   -0.35891448041984      1.18554158907690      0.22166383279400
  N   0.65538306071327      2.12099170171261      0.33938008290735
  C   1.87578177356318      1.70353246909261      0.20343198454237
  C   3.08093090599368      2.49599364598586      0.24976337074303
  C   4.11869023480503      1.65415135334987      0.02981904104873
  C   3.63782464687871      0.27697435866523     -0.15984771879528
  C   4.48734572377893     -0.80672423574409     -0.39717234501210
  N   5.24424733520310     -1.66767993081542     -0.59803065279468
  C   2.26271089275789      0.29756244579363     -0.05109022927761
  C   1.23998102719926     -0.66307474333966     -0.05962564225683
  C   1.51616735389625     -2.04438774001374     -0.18886580416003
  N   1.75083232438374     -3.17538364666112     -0.29660768085881
  H   5.16421157354016      1.91630151445031     -0.00968341310879
  H   3.11231661635752      3.55915664129387      0.41370294101419
  C   -1.59408069185462      1.76448087881728      0.15288372544599
  C   -2.88947242878824      1.21493279073040     -0.07809738314449
  N   -3.86097529833152      2.13010403650867     -0.28724191926036
  H   -3.63122891084297      3.09855931934417     -0.40297227571255
  H   -4.80377739750093      1.85184321258814     -0.49676217172904
  H   -1.55726732939733      2.84367635758802      0.23309769871069
  N   -2.87179527303905     -2.42320429239518      0.52745077211582
  H   -3.85754363605483     -2.58524718033703      0.43123333042727
  H   -2.25694116546897     -3.21767810471295      0.55334753476381
