29
Coordinates from ORCA-job ./opt_b97-3c_parallel
  N   2.33949933168424      2.56927911611338      0.83927973620361
  C   2.22538530495876      1.38450546747791      0.20600169594639
  N   3.37758195671423      0.90209354148677     -0.23690928363382
  C   3.52190735853301     -0.32102515918717     -0.73237281397457
  N   2.86017023095126     -1.42047041584262     -0.50925582976749
  C   1.65128661276231     -1.52869710526782      0.08188368960799
  N   1.46493793444875     -2.77526231251038      0.61063204753066
  H   2.29251319399984     -3.34613331737431      0.63827914647950
  H   0.80051215691758     -2.89410020389016      1.35592874073079
  C   0.60273070999708     -0.58250005850084      0.06008840598620
  C   -0.76995736136744     -1.00005258619392      0.07736284650130
  N   -1.15635748898461     -2.32587745075180      0.09127495556708
  H   -2.10480787406220     -2.45368864605199     -0.24130323896438
  H   -0.50438890227313     -2.98029610209770     -0.31111221514706
  C   -1.77035950170880     -0.03610236505103      0.03605815054883
  C   -1.46654984068475      1.36788913872479     -0.12853890075009
  C   -2.69728347069525      1.99204736348619     -0.31990011881648
  N   -3.72109208522554      1.09293978771361     -0.25550959413112
  C   -3.17840934350682     -0.11365784219365     -0.04292769721257
  N   -3.95381698272113     -1.28702928807791      0.02724867291593
  H   -4.91157041840443     -1.05783037739097     -0.20513968410776
  H   -3.94863225073051     -1.68912927637030      0.95728708879412
  H   -2.89507959822427      3.03922906945490     -0.49007665288082
  C   -0.13893316762938      1.78222967656084     -0.09543121221552
  C   0.88841982758975      0.86294116535157      0.00578829792777
  H   0.09604622522857      2.83363303876274     -0.19886489267933
  H   4.40866386183411     -0.44767910656550     -1.34815300868153
  H   3.25886923078411      2.96327026154731      0.93377356695901
  H   1.58450689581485      2.94590878773793      1.37879920366320
