28
Coordinates from ORCA-job ./opt_b97-3c_parallel
  N   -2.14811301268880     -2.79167393787581     -1.11307399379778
  C   -1.96047709093571     -1.74963360016297     -0.63166505207554
  C   -1.89148197990422     -0.42271563584387     -0.14328712251845
  C   -3.15371668363586      0.22802787514666     -0.09888669817116
  C   -3.35262173639743      1.52656590125939      0.40251357763452
  C   -2.39995001785082      2.48057954704970      0.65484825387955
  N   -1.11174210882139      2.53146089693058      0.33988796351491
  C   -0.28774374528292      1.54868546881883      0.03863827005126
  N   0.94063734873178      1.95618571685193     -0.34606841887631
  C   1.93038693684052      1.08768392512895     -0.31029557101605
  C   1.77467435635610     -0.30546145692086      0.22289458840365
  C   3.00958572446928     -0.87144222304174      0.29460931434291
  C   3.94477676879769      0.10578969244872     -0.23303748272019
  N   5.25731594471916     -0.12799933545562     -0.33203181489168
  H   5.88192430996651      0.55731381507043     -0.71522397483962
  H   5.65321741839531     -0.99968879513701     -0.03280964066258
  C   3.27930474527132      1.28531544424880     -0.60203517413479
  H   3.72477248983261      2.19187465466077     -0.97439035628193
  H   3.26187089017566     -1.86557130577852      0.62715813740537
  C   0.46419790096585     -0.77199192006599      0.44001404723758
  C   0.30147797701642     -2.09897004638276      0.89569929231890
  N   0.26277752921170     -3.17085094738165      1.34245010510035
  C   -0.60924597227784      0.09226634337363      0.18333616469731
  H   -2.76464825253530      3.39875526793172      1.10710136568958
  H   -4.37928548291349      1.81925615953549      0.58919992428059
  N   -4.25245927817501     -0.45285412405567     -0.50074056121660
  H   -4.20667546401505     -1.42697149086690     -0.74280898427861
  H   -5.15932894391612     -0.03507570338677     -0.42365981647522
