28
Coordinates from ORCA-job ./opt_b97-3c_parallel
  N   -5.54183296322162     -0.08252943980346      0.04384050535951
  C   -4.37856239697505     -0.04804991416939     -0.00058158104815
  C   -2.97095180974720     -0.01556616627681     -0.03970746446958
  C   -2.32122489302094     -1.26874025052078     -0.04678426692724
  N   -3.10250236153813     -2.38797257987761     -0.09659191460283
  H   -4.08969789505599     -2.31932333468774      0.07805325927370
  H   -2.68192749436077     -3.27149225711141      0.12260273347390
  C   -0.93891146963773     -1.50667590773113     -0.04098958775432
  C   0.17522211623933     -0.68853237081553     -0.01511360499146
  N   1.34675682375082     -1.38227777586020      0.00489119958962
  C   2.44761462944918     -0.66769787767383      0.02472022352560
  N   3.70120744500439     -1.13936617221701      0.04975571193971
  C   4.46945168565998     -0.01667767334285      0.06370838295587
  N   5.79834204160938     -0.14217808428825      0.09136802058289
  H   6.19759756293588     -1.06389950042087      0.08620087102954
  H   6.40566905662571      0.65463355140711      0.08583471881804
  C   3.74323641004292      1.21512540686151      0.04958868386403
  C   2.42429244956374      0.82702829367249      0.02342614936614
  N   1.28654132106230      1.51483261043609      0.00161489748759
  C   0.15004669566694      0.79378517025485     -0.01723728890788
  C   -1.00983218057336      1.56736250409750     -0.04878072187052
  C   -2.36893410698358      1.27231423372868     -0.05833068486893
  N   -3.21492975649957      2.34919514701992     -0.13151478437703
  H   -4.18773867402007      2.22560722048112      0.08924910848923
  H   -2.83941541724846      3.24883312450082      0.10570314083360
  H   -0.77296473732625      2.62485188879765     -0.06693051229759
  H   4.14767594676663      2.21355228237905      0.05788513195824
  H   -0.65901796026833     -2.55346464113953     -0.05325295893147
