23
Coordinates from ORCA-job ./opt_b97-3c_parallel
  N   -1.96959640398750     -3.19306102727508     -0.07934236077057
  C   -1.72755120401309     -2.05703050016098     -0.07789514415441
  C   -1.55281250322545     -0.64742400597027     -0.05259654216158
  C   -2.77916680657047      0.06209552064905      0.12676511436378
  N   -3.89845303504649     -0.64250009554767      0.41978832627738
  H   -4.79054307586804     -0.18555248745201      0.40461763482966
  H   -3.90462593190723     -1.64708688219785      0.39601007531984
  C   -2.91338885148122      1.44202672633836     -0.05558632365394
  C   -1.92301906126372      2.38004275640313     -0.25376825183489
  N   -0.61392763947654      2.31501928475914     -0.10452539866747
  C   0.17841924559552      1.26305610159936      0.03861363379619
  N   1.44722303337632      1.59605914643003      0.32364772407910
  C   2.35733917254087      0.64529304549923      0.25197142551576
  N   3.67380410808739      0.75545303149343      0.48987046549662
  C   4.12644132993851     -0.47834756713390      0.17003175130957
  N   3.24085986290738     -1.41400939141671     -0.26004469349696
  C   2.08229257914487     -0.73973578688936     -0.20797699644070
  C   0.78199351950235     -1.12320828428145     -0.40803754291799
  C   -0.23223661041508     -0.17581453587284     -0.18704184095908
  H   0.54288396752992     -2.15107005366442     -0.64204365081937
  H   5.17752071460571     -0.71751461254026      0.25351106139651
  H   -2.27671919837583      3.37913454119010     -0.49317962650728
  H   -3.92680508209787      1.82709590204136     -0.05886173190014
