30
Coordinates from ORCA-job ./opt_b97-3c_parallel
  N   -4.01655676703861     -2.36074142268053      0.61239734415713
  C   -3.37961839012391     -1.40821014487305      0.40315465195307
  C   -2.78612273131725     -0.17817554994173      0.11843701162351
  C   -3.59704781151642      0.98468931683966     -0.24919204762107
  N   -4.92870321418416      0.91959237011226     -0.31485770008309
  H   -5.48015247457470      1.71352139712126     -0.58118789379761
  H   -5.40695968543031      0.05674406529866     -0.11830976550979
  C   -2.76829361222278      2.07918761071109     -0.48974493167221
  C   -1.44856698341533      1.65462241699598     -0.29060070388981
  C   -1.46315972263979      0.22422969620238      0.07613079967135
  C   -0.24971792409937     -0.45796366769625      0.28408442577524
  C   -0.29704210711006     -1.80766235268095      0.70480385400652
  N   -0.36346288013183     -2.88441379313383      1.13455490974771
  C   0.98025864624820      0.20856203202327      0.12814637809076
  C   0.95548538809334      1.69981770854355      0.05494029480242
  N   1.95591132846932      2.52626097913894      0.33345418664177
  C   3.20887073844894      2.23293624859798      0.65113434462935
  C   3.94846602769842      1.08728588546276      0.47725470023241
  C   3.51855765400750     -0.15723597034628     -0.00758859676688
  N   4.47796033815170     -1.07216164915885     -0.28504291767594
  H   5.43704422855018     -0.78764087923358     -0.33919934185329
  H   4.24233111045509     -1.96878644076215     -0.67348366440122
  C   2.15309286147877     -0.53662748198511     -0.15419420634762
  C   1.99595378312681     -1.82562727600151     -0.72008496806074
  N   2.02646492367091     -2.84771920958308     -1.27389584581516
  H   5.00606441298394      1.17423860360305      0.69701346452456
  H   3.75807732651874      3.08336297622309      1.04512343927021
  C   -0.25712914857370      2.33696941724737     -0.26316524350084
  H   -0.22183018266008      3.41187167748953     -0.36600592379734
  H   -3.08684507326525      3.07385597856489     -0.75367744403673
