25
Coordinates from ORCA-job ./opt_b97-3c_parallel
  N   -2.79558816973567     -2.95821010515913     -0.01040711045016
  C   -2.26017053785234     -1.92729553281228     -0.01158333587369
  C   -1.87515732735684     -0.55669788444251     -0.00862508552841
  C   -2.97761770797859      0.36581313593369      0.00731060340086
  C   -2.83702603357397      1.75024179423367     -0.00889100797335
  C   -1.68115201187620      2.52024481558953     -0.02775621739136
  N   -0.40533305206731      2.20908796710657     -0.01907129710326
  C   0.16826048567065      1.00278349612736     -0.00752275592434
  C   1.57769062056449      1.02195169576972      0.01312466544911
  C   2.26870940364972      2.25768755944082      0.02765618216309
  N   2.92283908483421      3.21582959843975      0.04106493287983
  C   2.28869664999462     -0.17684279961617      0.01201064202094
  C   1.50572130799251     -1.44593253281377     -0.01977555317022
  N   2.32668990370069     -2.52228492823228     -0.02919568272319
  C   3.55853059328611     -1.99060484461114     -0.00467951603198
  C   3.60604610984012     -0.56684004620344      0.02087478483289
  H   4.48473227984259      0.05521977232505      0.04108536693127
  H   4.42106443442694     -2.64368374616980     -0.00564298593640
  N   0.19728897428738     -1.49593584195192     -0.03450388673568
  C   -0.49658347907400     -0.33140018894798     -0.02149785445860
  H   -1.85720580186520      3.59207431204173     -0.04599823023865
  H   -3.76024125863077      2.31825966026595     -0.00665685196339
  N   -4.22466724001626     -0.15048968079037      0.03615426904786
  H   -4.38506762094730     -1.14255964251522      0.02650152215522
  H   -5.02476357701851      0.45260422319160      0.02841264292075
