22
Coordinates from ORCA-job ./opt_b97-3c_parallel
  C   -3.89028032078015     -0.03728721782702      0.00140907213711
  C   -3.15347485688864      1.15057438338529      0.00123169292007
  C   -1.79929115567470      0.79365053208377      0.00086382451037
  C   -1.73718045015051     -0.70473438863354      0.00075469090547
  N   -0.59720019591449     -1.39150615102349      0.00037045778213
  C   0.55384935715017     -0.71282352298693      0.00012087883046
  C   1.70116600505013     -1.51630810936309     -0.00030113008186
  C   3.05441110067914     -1.21254843772433     -0.00057125944236
  N   3.70288391229483     -0.04711833093946     -0.00048723523348
  C   3.12430034085620      1.13930856861465     -0.00015580218372
  C   1.77500773705411      1.51518391226372      0.00015919035683
  C   0.60322913395916      0.77573167977210      0.00028898158980
  C   -0.61735406945545      1.48053396873398      0.00062354348237
  H   -0.59505306536572      2.56406065012270      0.00071539738383
  H   1.62922844018160      2.59106584802846      0.00035205182039
  H   3.82684826987114      1.96738837890722     -0.00014473507440
  H   3.71757567967330     -2.07118417027725     -0.00087946889141
  H   1.46518118417197     -2.57362395338000     -0.00042205221023
  C   -3.04288825761773     -1.16979893545211      0.00111186409509
  H   -3.34862393985065     -2.20257391373188      0.00114912585410
  H   -3.55452916814988      2.15116149844504      0.00138707915020
  H   -4.96990641219378     -0.08638154631784      0.00171801849925
