24
Coordinates from ORCA-job ./opt_b97-3c_parallel
  N   -4.07909674188478     -1.67048395212136      0.39933391414677
  C   -3.17675842746953     -0.71511761374511      0.04824501385365
  N   -3.73186046819511      0.48695613082969     -0.19832619147218
  C   -3.04094448075368      1.60674641255564     -0.23883328603684
  C   -1.68967282063838      1.86859880627349     -0.02945033667197
  C   -0.61095310762846      0.99340348047385      0.07567472357981
  C   0.66746249323091      1.53277484301469      0.22361201011250
  C   1.77900680005265      0.71853435841560      0.11344655443279
  N   3.08230672253590      1.00439762285354      0.19292967822892
  C   3.65716395174605     -0.21845275636570     -0.02705233786865
  N   4.98233184794956     -0.35571625227715     -0.02663658775133
  H   5.56651153345369      0.44415732449577      0.12853765044948
  H   5.39043682413606     -1.25642249364960     -0.19251184186653
  N   2.83809211963415     -1.28311440958995     -0.24437571526845
  C   1.62090191645462     -0.72578998586904     -0.16370643627848
  C   0.36552460033259     -1.28565185636624     -0.26944255804160
  C   -0.77603665580930     -0.49248762169774     -0.09613891638120
  N   -1.92614495348441     -1.15689200271695     -0.05317690528234
  H   0.23117572537809     -2.34784689984209     -0.40759217711122
  H   0.78529246192634      2.59878345592191      0.36507111803062
  H   -1.43535204133135      2.92228473610936     -0.01435025078672
  H   -3.64984520936469      2.48094399045726     -0.45401452584442
  H   -5.04999078847523     -1.46393517146198      0.25079786349308
  H   -3.78105761509572     -2.62755758799789      0.35160649013434
