26
Coordinates from ORCA-job ./opt_b97-3c_parallel
  N   -3.73353809522146     -2.75647152987234     -0.49002208839264
  C   -3.14294592395056     -1.76459793479427     -0.32992991265352
  C   -2.54174639531857     -0.52406472169852     -0.13055659169043
  C   -1.19369237737224     -0.17523065833693     -0.05889959707755
  C   -1.12651035709300      1.29621373055919      0.18249361325805
  C   -2.42018442469910      1.78677159802700      0.28553684687930
  C   -3.28993411921561      0.69369970002454      0.09123515299924
  N   -4.62333777527479      0.72436306117032      0.09846759828277
  H   -5.12638625328082      1.57463148268031      0.26954776891082
  H   -5.15320836995666     -0.11797549334172     -0.04600862366052
  H   -2.71059417885359      2.81021573466981      0.45588152153790
  N   0.03395948065646      1.92809742954120      0.21951663630334
  C   1.14438449011364      1.17104848494537      0.07921179856015
  C   2.32044033028705      1.89319980706403     -0.08962692084166
  C   3.63137873139318      1.45654928245433     -0.26266754228107
  C   4.13766540406807      0.18671899222567     -0.18787216479668
  C   3.40155188811306     -0.98569322665886      0.10716990291975
  N   4.10952056958347     -2.10964900008517      0.42169982679869
  H   5.09549220141309     -2.15287466857026      0.24245497152180
  H   3.59952746742219     -2.97541850072382      0.39753200798908
  N   2.09299547409771     -1.16598751486555      0.09047712709838
  C   1.07358633404643     -0.32106197835290      0.00277102949553
  N   -0.11809015634675     -0.93618529737074     -0.11888166022283
  H   5.20676891636891      0.07125988695981     -0.32255308283379
  H   4.35344912961120      2.23855121524149     -0.46379321394755
  H   2.16145470730760      2.96376997831012     -0.10661012135652
