33
Coordinates from ORCA-job ./opt_b97-3c_parallel
  N   -5.93352933432498     -0.10526051111054     -0.78869757677946
  C   -4.80544574685398     -0.19057886415749     -0.51377534319556
  C   -3.44369271798660     -0.32671804333843     -0.17938438972818
  C   -2.95011270010330     -1.64595676901712     -0.14358131016299
  C   -1.63947137807373     -2.04037611247786      0.17516412954670
  C   -0.45195861002470     -1.34348890282974      0.25969043619385
  N   0.61882187751354     -2.15912760065720      0.46718769667209
  C   1.82820804741332     -1.65761101326215      0.35637551395294
  C   2.08276934843513     -0.25379980223907     -0.05813683338394
  C   3.44527296697577     -0.10743847818687     -0.20807875119522
  C   4.23173608449509      0.98332438498827     -0.57589941746691
  N   5.00613315978271      1.80484376224600     -0.86347535449600
  C   4.04924737651868     -1.39761505382641      0.16093964022202
  N   5.36950430377921     -1.57362646289561      0.14221557228239
  H   5.78630628138087     -2.44588208328696      0.40980895237070
  H   5.98119019851509     -0.81910966086507     -0.12061441364343
  C   3.05694371125558     -2.31445605170111      0.49609502057626
  H   3.19470915564219     -3.34478886444850      0.77553064895758
  C   0.98184085433046      0.60164695867824     -0.18835459821384
  C   1.18993546903265      1.91281537046666     -0.67588303094865
  N   1.39402663358779      2.94495830719004     -1.16646443265482
  C   -0.30952118636226      0.11189116130648      0.09600481525371
  C   -1.36637946121154      1.02514849930344      0.36291738795146
  C   -1.00198676983509      2.29891735178585      0.86020996379073
  N   -0.83317366935389      3.33739434646058      1.35643437388597
  C   -2.77061836899592      0.86296627785395      0.21976706846496
  N   -3.54703319289853      1.94398246161828      0.43917535644045
  H   -3.13950153590684      2.84561064393088      0.61391465232465
  H   -4.54615708050796      1.89006352835642      0.36358611135304
  H   -1.49325791318498     -3.10643089624903      0.29284302375807
  N   -3.81820136048101     -2.66154393622583     -0.38512976665761
  H   -3.46424779536485     -3.58539570641722     -0.54562844035704
  H   -4.75666315899034     -2.47758562859023     -0.69304816631404
