30
Coordinates from ORCA-job ./opt_b97-3c_parallel
  N   4.56524055866220      0.87397628403212      0.77261248787715
  C   3.33826110795716      0.73395382716439      0.21241590974685
  N   2.65405404667220      1.87766613446838      0.10895887966127
  C   1.35312651027281      1.92005871921095     -0.13372559994365
  C   0.35877693726939      0.93953717977817     -0.14486152580292
  C   -0.96085835618425      1.43458659000100     -0.21425649177233
  C   -2.03584248075375      0.60193582290491     -0.08005436772947
  C   -1.82559543417912     -0.81835520061310      0.18933282690555
  C   -3.07923967260200     -1.38497882145101      0.40768811567368
  C   -4.05857829592977     -0.37531616912585      0.24942217910842
  C   -3.44097589894641      0.83738898433358     -0.04678734913004
  N   -4.04525394947161      2.08369489603304     -0.18168313937402
  H   -5.03191512653507      2.02930079813603     -0.37876724021743
  H   -3.59460910976624      2.68069949063230     -0.85758553110969
  H   -5.12398840546299     -0.52323610412374      0.35277886731563
  H   -3.30738520192405     -2.41842261058472      0.62401720141121
  C   -0.52912200534924     -1.34142109239489      0.17198054097990
  N   -0.37493510036539     -2.73242530013286      0.32808737247946
  H   -1.23865034992523     -3.17191810553030      0.60185506696979
  H   0.35027082415752     -2.97873206148362      0.98587636981472
  C   0.57745978093638     -0.50171638671630     -0.04401448069186
  C   1.87271276056965     -1.03135583868846     -0.41196787015693
  N   3.07239316408607     -0.50077417276308     -0.22083974635242
  N   1.91727878386315     -2.21990532416623     -1.04959827732318
  H   1.08829278289122     -2.79023902764201     -1.11158260577713
  H   2.82122797369703     -2.63676093229243     -1.18132078612110
  H   -1.09529088409421      2.50579207884557     -0.31001926682983
  H   0.98781376760278      2.93184257674073     -0.28984186325243
  H   5.22177449200739      0.12352509476913      0.66220258126817
  H   4.91408236944436      1.80845527795826      0.88402978837256
