24
Coordinates from ORCA-job ./opt_b97-3c_parallel
  N   -5.13274022481844     -0.06966003831049     -0.11519917658118
  C   -3.80653163308985      0.01132724968566     -0.04840919762961
  N   -3.05385018996647     -0.82795226635395     -0.80431751797908
  C   -1.79445343750089     -0.49311488336000     -0.49248378708193
  C   -1.75796012473909      0.66937543911499      0.47568745803137
  C   -3.06827933236005      0.93653437928044      0.76697660983299
  H   -3.46921836695201      1.70731504602134      1.40354403132748
  N   -0.62247001390286      1.30408568092445      0.77928222576110
  C   0.47676700106113      0.77217161815601      0.24873426060968
  N   1.55336043449424      1.53638374987516      0.16945713740636
  C   2.77898463454554      1.15039226949345     -0.18516777338877
  N   3.55259715619730      2.12775500518049     -0.71130933460221
  H   3.22683930535663      3.07317209200123     -0.62674506661045
  H   4.54057696247842      1.96378689764149     -0.77338728883055
  N   3.39547777779202     -0.02299408699896      0.00363717561347
  C   2.69885602090064     -1.14086815225607      0.14098352271485
  N   3.34751776220473     -2.18800895744514      0.69472500926213
  H   2.95511037684401     -3.10296915752458      0.56939983843402
  H   4.33368174277690     -2.10155844819252      0.85893567000224
  N   1.45734208742533     -1.44141105955476     -0.29489037323095
  C   0.43995359990385     -0.62248510025599     -0.35004490208761
  N   -0.70448632027665     -1.11819397278831     -0.87376920631689
  H   -5.72790457166687      0.51480904991848      0.44077709442192
  H   -5.54616603810739     -0.75421465525236     -0.72426270717849
