28
Coordinates from ORCA-job ./opt_b97-3c_parallel
  N   -2.10117010113891     -3.27853931395577     -0.07969165730652
  C   -1.95583876794027     -2.12571217607859     -0.03011655942809
  C   -1.89123290999699     -0.70962539551476      0.01533191076932
  C   -3.17145465691701     -0.09818757439228      0.03895481279590
  C   -3.39989858205120      1.28023077216496      0.03739495940543
  C   -2.49106760861294      2.31774393981410      0.01204071092895
  N   -1.16915949258897      2.35314852468957     -0.00828610280611
  C   -0.29825200580089      1.34209424382629      0.00069456452951
  C   1.03590129538670      1.76262123231020     -0.01879839963005
  C   2.09833848526775      0.88144762064680     -0.00505406329792
  C   1.81385235086455     -0.57472778570240      0.02886126606117
  C   3.02103529051978     -1.24228862426539      0.04378770512574
  C   4.04656872719097     -0.24780377900306      0.02049251405717
  N   5.36559758371367     -0.51663212284502      0.00108751769017
  H   6.03485912969462      0.22189548950309      0.11466781974353
  H   5.69417074706036     -1.45089843530712      0.16003497906397
  C   3.47626104251180      1.04897988312014     -0.01087720299658
  H   4.01996283643583      1.97957606594604     -0.03640407104523
  H   3.17923419914923     -2.30884167665002      0.06438847093937
  C   0.49519281734782     -1.01413180153296      0.04358630013888
  C   -0.58647013353695     -0.14243204718365      0.02574255737258
  H   0.31432667041238     -2.07959047302194      0.06754819591432
  H   1.19371375684887      2.83142850664971     -0.03970345482129
  H   -2.93959355080090      3.30814361872746      0.00763528553179
  H   -4.44043958551614      1.58481992023680      0.06481797944546
  N   -4.28377135861802     -0.90199276577088      0.11675149336701
  H   -4.19017632213097     -1.87900807683948     -0.10286609032186
  H   -5.15712240705453     -0.49592099197218     -0.16541571432689
