29
Coordinates from ORCA-job ./opt_b97-3c_parallel
  N   -2.13938335431517     -3.63332289528112     -0.00092646327930
  C   -2.05197879067799     -2.47324287508973     -0.00099309687612
  C   -2.04250718828068     -1.06085992216220     -0.00104794780566
  C   -3.34691956020491     -0.48519558279173     -0.00116981231215
  N   -3.71724213109444      0.79998833234815     -0.00171106147766
  C   -2.95517934109824      1.86775448455293     -0.00174990456178
  N   -3.62169901888880      3.04452284702213     -0.00254167826433
  H   -4.62533064996627      3.03125132374629     -0.00317029497996
  H   -3.14803111359823      3.92722904392610     -0.00282672032065
  C   -1.53219182496213      1.98237237629519     -0.00094703636120
  C   -0.55767806786799      1.02552598814557     -0.00056531999317
  N   0.70194417896094      1.59372718538190      0.00000569460758
  C   1.72554079023811      0.79878555693112      0.00009592209620
  C   1.63156553580635     -0.67007849125280     -0.00036356010606
  C   2.93612459824384     -1.16672402255996     -0.00016144990530
  C   3.31299247408353     -2.51345650305222     -0.00046732545142
  N   3.61111909467982     -3.63824304410238     -0.00082333459773
  C   3.83076723461018     -0.04413284372558      0.00042905068695
  C   3.12742548124093      1.14618762878864      0.00061082710216
  C   3.64563927774870      2.44653894653974      0.00115971296950
  N   4.06224322451813      3.53174141483915      0.00197719538251
  H   4.90542975814929     -0.12889129361917      0.00069442865181
  C   0.37735754856799     -1.24230784729349     -0.00079784764755
  C   -0.76227792081528     -0.43603794501530     -0.00085308717765
  H   0.28004227992955     -2.31866615961426     -0.00103463726065
  H   -1.13445414682212      2.98865921239699     -0.00069735140094
  N   -4.41003906151270     -1.31927839530562     -0.00085189783415
  H   -5.32417749592356     -0.90797860672306     -0.00120738352131
  H   -4.31721758084882     -2.31835023452530     -0.00057844636194
