26
Coordinates from ORCA-job ./opt_b97-3c_parallel
  N   -1.93060796986333     -2.74627681697224     -1.21762314029901
  C   -1.71949484415845     -1.72544175506356     -0.70112508877594
  C   -1.62115430872058     -0.42910592669773     -0.14744163447161
  C   -2.85929465249248      0.21008040619404      0.03143059904227
  C   -3.00116877145605      1.53703212185314      0.51862114372975
  C   -2.05489113982462      2.51287427703665      0.56327590437078
  N   -0.79843990089959      2.53771014066456      0.08451250401963
  C   -0.00169532603571      1.52091740564168     -0.12350415097270
  C   1.32867135889654      1.89691773524716     -0.52438349998530
  C   2.34222767078533      1.01477490845184     -0.39042546491319
  N   3.70151103189531      1.23297008224542     -0.58465402452428
  C   4.26492341588451      0.10424676150589     -0.20969083035455
  C   3.33236797402195     -0.90523167588726      0.25090712998253
  C   2.09855345623713     -0.33311103060711      0.12696202429523
  C   0.76297609969312     -0.77498304503631      0.34241624065712
  C   0.57693668693605     -2.10059309578707      0.79778019093529
  N   0.50043431225675     -3.17257943423197      1.23798397451415
  C   -0.30301466396569      0.08622025260872      0.11589767686517
  H   3.57248159766983     -1.89444746999198      0.60459079726065
  H   5.33926047043305     -0.01590692889947     -0.25790092911665
  H   1.49690892511643      2.93195531790937     -0.78225132064240
  H   -2.37128793345115      3.47025505880475      0.96380826322053
  H   -3.99623143211886      1.82364130324880      0.83767164688801
  N   -4.00865055304741     -0.46986376218198     -0.19607325516050
  H   -3.98210597575981     -1.39548947595826     -0.58892097202111
  H   -4.87286350253198      0.03063146370307     -0.28133466104431
