21
Coordinates from ORCA-job ./opt_b97-3c_parallel
  C   -3.64546107498545     -0.09424730893553     -0.00122230098240
  C   -2.92528543053501     -1.28650703047079     -0.00274096011418
  N   -1.62775190404551     -1.52931298918262     -0.00296856527281
  C   -0.58611736246400     -0.69835384695106     -0.00226906463786
  N   0.58659699515476     -1.35391748720362     -0.00254333346333
  C   1.70334475865749     -0.65401454812699     -0.00236322830524
  N   2.94203703004706     -1.18198455540776     -0.00259808234809
  C   3.76535862253367     -0.10889999039838     -0.00245583509351
  C   3.11669198739267      1.14108376947229     -0.00210341479337
  C   1.76244911806947      0.83607983649051     -0.00202403888750
  C   0.56963118831044      1.51850936736740     -0.00155016531948
  C   -0.63742822395261      0.80776401067012     -0.00153541103261
  C   -1.80809398775590      1.56675834659637     -0.00043996722989
  C   -3.14149490106768      1.19295753926601     -0.00014809746999
  H   -3.86200229759216      2.00077103559579      0.00093081432839
  H   -1.63849363889034      2.63852349950457      0.00029149470422
  H   0.53991604907781      2.60190742767543     -0.00107100652122
  H   3.58248778335466      2.11294867829969     -0.00194378671138
  H   4.83616129952359     -0.26252842624681     -0.00260795774403
  H   -3.52684495504878     -2.19145325029648     -0.00372411358034
  H   -4.72402358198413     -0.20154337421814     -0.00098076162539
