30
Coordinates from ORCA-job ./opt_b97-3c_parallel
  N   3.59918232604227      3.02402096431777     -0.38146717252473
  C   3.04137480001551      2.01435821961248     -0.24105996286123
  C   2.47058101949007      0.73022000184960     -0.03520541894244
  C   3.43153300675117     -0.23529115576647      0.45079407766393
  C   3.26624474258820     -1.60783224699291      0.37322630989599
  C   2.17904210878448     -2.32364679200362     -0.10456059195074
  C   0.88481873451671     -1.91013857704198     -0.34305149051470
  C   0.07786934453669     -2.88245433976320     -0.98900647890872
  N   -0.49945773469137     -3.68711732975296     -1.59640732621354
  C   0.30216935867674     -0.61515066375034     -0.07289549133931
  C   1.08920011704331      0.60518280242791     -0.22431651992434
  C   0.38340924688946      1.82538144032746     -0.49609234265058
  C   -0.96249941865837      1.90057978976733     -0.36797700866544
  C   -1.73384383231177      0.73388468602061      0.04057953618105
  C   -3.04700576831432      1.15179810931650      0.19547005354443
  C   -4.17141915752223      0.41864513885272      0.58801839329139
  N   -5.14826164189579     -0.12431935978515      0.91087950414656
  C   -3.10254860845753      2.57489199389267     -0.13979200160116
  C   -1.86507367883827      3.01947480351016     -0.47471783229570
  H   -1.58706006530484      4.02141103173804     -0.75600424718743
  H   -4.01280953730396      3.15177076496276     -0.11038479156564
  C   -1.07467905599015     -0.50919287558409      0.15096112059406
  C   -1.82065109570737     -1.64345035553447      0.55339837888050
  N   -2.43038539247034     -2.53896801594382      0.96896659277439
  H   0.94856348910846      2.72019699337452     -0.71045075726544
  H   2.37007979860482     -3.36931864493933     -0.30548787185857
  H   4.13252135779623     -2.20079500969556      0.64063595710789
  N   4.59829439799251      0.24414196260301      0.95479364616214
  H   4.84865420527348      1.21092792665652      0.84452613564726
  H   5.35850640514933     -0.39117845127979      1.11242728287999
