34
Coordinates from ORCA-job ./opt_b97-3c_parallel
  N   -5.67566048833795     -0.74837239182036      1.12492803631080
  C   -4.59353904779287     -0.52740088611522      0.75765171436500
  C   -3.29232291351611     -0.23397449056857      0.30297433739040
  C   -2.94143719581431      1.12795738128799      0.29165177681419
  C   -1.69896271410315      1.67399003131641     -0.18325517676926
  C   -1.75989916488790      3.06991023034013     -0.41976315172548
  N   -1.88940982976564      4.21164227041160     -0.59497358469422
  C   -0.43518478897148      1.06797731003776     -0.27724772408118
  C   0.67131301862432      1.92156989930742     -0.50479324554047
  C   1.95112449532428      1.47382149618393     -0.34070152637008
  C   2.19515511027586      0.09392048736177      0.08998539243558
  C   3.55760667735417      0.00623931870586      0.28408416774850
  C   4.38840041312778     -1.03569911142022      0.69278578399812
  N   5.18766961834452     -1.81616631564657      1.02070680965537
  C   4.06216373806901      1.34326111394788     -0.07156336497140
  N   3.10246728250572      2.19170289151631     -0.43167302396004
  N   5.34804229186620      1.67020482313513     -0.03616657772407
  H   6.04675093595833      1.00233791015715      0.23902310454181
  H   5.63171637587922      2.59791995673549     -0.29838889586882
  C   1.11351236545540     -0.80143354140443      0.19303479633735
  C   1.36213502635588     -2.11837660959847      0.64197680690624
  N   1.59275230252901     -3.16489487594875      1.08900311119622
  C   -0.18901838868684     -0.37192980276589     -0.10694033247477
  C   -1.16625336766996     -1.35293061539399     -0.45330363603945
  C   -0.69997631296431     -2.53413330686717     -1.07233968204718
  N   -0.43865732207117     -3.50509883117585     -1.65766579850098
  C   -2.56466611505434     -1.32620812734838     -0.25019196955750
  N   -3.26743712299393     -2.43592870358083     -0.54502245984379
  H   -2.79946197724938     -3.28798926058280     -0.80141049756191
  H   -4.26032386248184     -2.47533244067922     -0.40238807323185
  H   0.51231770956912      2.96925075634801     -0.70740253890692
  N   -3.85904162215113      2.01276580100462      0.72952557961852
  H   -3.67757310638879      3.00015769708717      0.70852786522728
  H   -4.79263998512973      1.71916436403741      0.95674416052657
