20
Coordinates from ORCA-job ./opt_b97-3c_parallel
  C   3.56945895996923      0.01009614355870      0.11656252702835
  C   2.93909284402789     -1.18573589110726      0.34991731092216
  N   1.66987947028778     -1.53012347909085      0.09729519722318
  C   0.63884121883849     -0.74501436808721     -0.11468547018767
  C   -0.59109881803492     -1.41692667130208     -0.35767817813856
  C   -1.74192051573602     -0.70400059806945     -0.25081472133788
  N   -3.04015060703723     -1.12762524044372     -0.29977610947687
  C   -3.74485405135748     -0.04280428267020      0.03429775846356
  C   -2.96737818196978      1.12624999779447      0.29935306609028
  C   -1.66263749308389      0.73657298192755      0.10685945116235
  N   -0.51725773479347      1.43709001688219      0.13398754484217
  C   0.61083841744329      0.77693825014059     -0.03076187026113
  N   1.69118641523714      1.55004624891241     -0.26778532981923
  C   2.95129562958995      1.21162346813820     -0.27951917336932
  H   3.62082248403334      2.01318430002799     -0.58122104554497
  H   -3.32983720068434      2.10238951387156      0.57332483537347
  H   -4.82469494232768     -0.09872065200248      0.08094943669124
  H   -0.57624314788564     -2.48888504516344     -0.49387929724352
  H   3.54976490308713     -2.01511685136654      0.69070367826239
  H   4.64830903789603      0.02853408164948      0.21857181692000
