28
Coordinates from ORCA-job ./opt_b97-3c_parallel
  N   5.55156398763400      0.75288946833613      0.29827859458564
  C   4.41288125764097      0.52968266170311      0.19415232200011
  C   3.04538172000057      0.23030982136201      0.06499570341450
  C   2.12968064482377      1.33829038498214     -0.14078627746069
  N   0.82860906350756      1.36384038025447     -0.12897049623672
  C   -0.10954799297381      0.40309728529075     -0.04866169536956
  N   -1.34550741060181      0.85891605294579      0.05393187749743
  C   -2.36532863883750     -0.00746929035251      0.04544323615010
  C   -2.21126451557379     -1.46098276000612     -0.11931184051222
  C   -3.52631798735365     -2.05160133802070     -0.12104740870817
  C   -4.41991376746037     -1.04140414623944      0.03882454340958
  C   -3.72514969190142      0.24326411443869      0.14508708572052
  C   -4.35304446757822      1.47967340080134      0.31113587295234
  N   -4.90942894417909      2.49252978057604      0.44989225703488
  H   -5.49331131200525     -1.13650021789254      0.08498135140903
  H   -3.74759826489174     -3.10110264687956     -0.22501667121373
  C   -0.95886372514719     -1.95382896154462     -0.20906493366298
  C   0.16401825350978     -1.05799010604531     -0.12852877363220
  C   1.39084515811268     -1.65168134871683     -0.06245683703195
  C   2.70494917732380     -1.12006691749050      0.08976499964514
  N   3.67477241237929     -2.04679283758077      0.27858983944311
  H   3.46967865408777     -3.02258192053661      0.18257469199847
  H   4.64465663695820     -1.78386483016300      0.29587151971085
  H   1.36951238454610     -2.73635744627832     -0.09574359052150
  H   -0.76793848788485     -3.01631992745974     -0.30461487440688
  N   2.71295869130785      2.54531770750274     -0.37048984943027
  H   2.09827129843808      3.33944578815332     -0.34610759345944
  H   3.69331135631827      2.70015996116002     -0.22091775742537
