26
Coordinates from ORCA-job ./opt_b97-3c_parallel
  N   -2.55968459702579     -3.31586231984253      0.04450645575336
  C   -2.21372488053385     -2.20702372931714      0.00812565038284
  C   -2.05578451401085     -0.79484442324300     -0.01747574238781
  C   -3.28189870186319     -0.06854739004622      0.03345546094330
  N   -4.42915906042078     -0.76838754849253      0.15752390148492
  H   -4.43141408581111     -1.77376178400681      0.16164562363806
  H   -5.31415703421971     -0.29907085777103      0.13926691105852
  C   -3.38349293414362      1.32496384732471     -0.06113041381316
  C   -2.37547758675316      2.25971079865768     -0.15382615585006
  N   -1.05913640494666      2.16271313797246     -0.09848533983726
  C   -0.29439459628618      1.07988855501833     -0.03016426530791
  C   1.09560704020326      1.35128916333852      0.08035504127387
  C   1.55363377849072      2.68723282307227      0.15563994386606
  N   1.98331807693854      3.76233396415259      0.22417984242105
  C   1.98693155889855      0.28613028691139      0.06642830794598
  C   1.44304539024997     -1.08534099886296     -0.08382584611160
  N   2.45689247203905     -1.94539154158417     -0.12857851272866
  C   3.53596468425339     -1.11776996799789     -0.00430119660541
  N   4.77060015258368     -1.59861471582574     -0.00104250375411
  H   4.92341777156992     -2.58631285497541     -0.09351538928111
  H   5.54916809855205     -0.97141271232951      0.09063814665624
  N   3.31132818141266      0.23066854863967      0.11658951632384
  N   0.15317779635743     -1.36831507538775     -0.14531231096321
  C   -0.71885440456376     -0.35076635974729     -0.08680270907336
  H   -2.71675869907377      3.28570973975846     -0.26030559315813
  H   -4.38918670809672      1.72869313018390     -0.06935252297625
