27
Coordinates from ORCA-job ./opt_b97-3c_parallel
  N   3.92331584008624      1.62895494974755      0.32386207911810
  C   3.20890396414261      0.46694682196751      0.05403675298167
  C   3.71931637352701     -0.80527745915335     -0.18368260421935
  C   2.65900843793823     -1.73635418990907     -0.33367586175275
  C   1.45830870207852     -1.05765821246741     -0.18448788946971
  C   1.78549032848206      0.35449312264509      0.06934265892929
  C   0.78108543516210      1.26333890212874      0.21431235845207
  C   -0.58811902857866      0.89410673005479      0.11448825863865
  C   -1.49709837123963      1.94246504811513      0.11481679624355
  C   -2.87033624033811      1.93889154585788     -0.12602978833325
  C   -3.67419364911027      0.83373273134922     -0.31223718243385
  N   -3.43162003485321     -0.45731917685558     -0.11751822655648
  C   -2.25583495520033     -1.03040734858929      0.11658838179595
  N   -2.38642308053809     -2.32588646942376      0.50102828843730
  H   -3.32813798023238     -2.64566880199733      0.64649159701950
  H   -1.65093713560115     -2.78002365512871      1.00852237153638
  C   -0.91157435888163     -0.52788392634094     -0.04276863549685
  C   0.12556174836065     -1.44111512722776     -0.20657017918218
  H   -0.10656174931886     -2.48220567940768     -0.39110905993161
  H   -4.70302059919591      1.03257995005138     -0.60164820672059
  H   -3.35693854809169      2.90195811634216     -0.21087467731665
  H   -1.05655971596986      2.92369808728229      0.25395524117807
  H   1.00000431607722      2.31406139879717      0.36849764082019
  H   2.77828073817888     -2.78949056649831     -0.53656027599582
  H   4.77060159667334     -1.04812330024465     -0.24676467073712
  H   3.47168673072030      2.46968615473960     -0.00156896968746
  H   4.87476539462252      1.60089810606503     -0.00705969991735
