29
Coordinates from ORCA-job ./opt_b97-3c_parallel
  N   -2.55937292716284     -4.13762119454613     -0.00808210435826
  C   -2.27403318272552     -3.00907213922362     -0.00810172310251
  C   -2.02268203157119     -1.63707388676084     -0.00753232452566
  C   -0.78420458553338     -0.96685756791770     -0.00938819402001
  N   0.41550540945013     -1.50103081540913     -0.01338569469371
  C   1.49295175843752     -0.67798314547794     -0.01416778254595
  C   2.69477005908586     -1.36792355437623     -0.02692982671525
  C   4.03116786053199     -0.93370158959853     -0.02585179007839
  N   4.98879301111428     -1.89970444793094     -0.07133165050642
  H   5.94854489502367     -1.66118770714854      0.09570289544833
  H   4.74029778639570     -2.85851757889763      0.08776914846824
  C   4.43769611514554      0.40400411141078     -0.01285097749902
  C   3.63990399638458      1.53425424056745      0.00042334239610
  N   2.33069136329054      1.70808423258985      0.00154567169749
  C   1.35857698844934      0.79904788767233     -0.00619041499010
  C   0.04553133611614      1.33868622726210     -0.00457025741402
  C   -0.12220209036333      2.74457966265396      0.00243449417832
  N   -0.31594332532582      3.88804989891009      0.00812290288622
  C   -1.05077626364144      0.48533986141232     -0.00670184749335
  C   -2.43285614167315      0.66869246754274     -0.00425244120671
  C   -3.20828545260800      1.82999414256547     -0.00115063367780
  N   -3.96443331558493      2.71508536779079      0.00111212328397
  C   -3.03447411874482     -0.64014770145114     -0.00467079962228
  N   -4.34196469513703     -0.86190170451662     -0.00259944434748
  H   -4.70557022857865     -1.79921276783593     -0.00345459607273
  H   -4.99265331309992     -0.09465403151846     -0.00103703697316
  H   4.18675808061674      2.47302118380421      0.01263977604418
  H   5.50563135807256      0.59054955828924     -0.01503518333097
  H   2.54322526303534     -2.44077379056222     -0.04000119972925
