37
Coordinates from ORCA-job ./opt_b97-3c_parallel
  N   5.08383998156155      1.53878349078619     -1.04713100568399
  C   4.11432237378719      0.98060585310185     -0.71044015366456
  C   2.94862823256129      0.33151125851451     -0.28722113097752
  C   3.10226932182204     -0.82026717983984      0.56754541873857
  N   2.28848894130735     -1.82972496660200      0.63213886364592
  C   1.12421731442230     -1.97411745478151     -0.02984742566298
  N   0.94172822349837     -3.29061395846002     -0.43922863323647
  H   0.49524255309211     -3.40711433986008     -1.33505342665932
  H   1.78623522561506     -3.83095309266569     -0.34207490355960
  C   0.10667486999048     -1.02271140352167     -0.18231038976665
  C   -1.26689333923234     -1.44186351368945     -0.23465021552457
  N   -1.66828140361823     -2.76087206936772     -0.24662392706788
  H   -2.58678463728429     -2.89446380244228      0.15437127616096
  H   -0.98580175351315     -3.42607051408375      0.08797438148467
  C   -2.26156467756790     -0.46993126030300     -0.18256260874788
  C   -1.94873238989688      0.91069287480256      0.06749268789949
  C   -3.17870748261173      1.53527968804987      0.29537149403455
  N   -4.20843522498829      0.65289075542742      0.20778730070811
  C   -3.66909760421908     -0.54705213086855     -0.06969794006495
  N   -4.45903881208086     -1.69466738018104     -0.16961298627930
  H   -5.43379736038057     -1.45211666585869     -0.05952310517971
  H   -4.33286977609548     -2.18287071295009     -1.04628175384964
  N   -3.39417252495842      2.89442702541591      0.57966768230005
  H   -3.22129054206440      3.48361843842522     -0.22549565178355
  H   -4.35699853573874      3.02763635815400      0.85889169573253
  C   -0.62367588782078      1.34642836423693      0.11387965985874
  N   -0.40121578074595      2.70479599900565      0.36068026212080
  H   0.43641244846771      2.88629158925822      0.89248520640151
  H   -1.20511645103326      3.13387224912581      0.80357144372542
  C   0.41507097462406      0.42912971273249     -0.12454245898337
  C   1.70283290500262      0.93448474616892     -0.53830122344360
  N   1.72896848142815      2.08983800202945     -1.24505480240291
  H   2.60159936935647      2.57380957654211     -1.37382750805027
  H   0.88978382484569      2.64031166770929     -1.30787427034006
  N   4.21603280211153     -0.87794966475540      1.34279914205463
  H   4.46500001950660     -1.77456921890365      1.72030624743457
  H   4.96119264814977     -0.22388853674206      1.18432049932702
