25
Coordinates from ORCA-job ./opt_b97-3c_parallel
  N   4.16783911751575      1.81010261792057     -0.11560125366662
  C   3.24809532633882      0.78055501608847     -0.04183129649904
  C   3.73948993615249     -0.52410063511447     -0.00781334101436
  C   3.01593775372582     -1.70295196142176      0.01312467611271
  C   1.65356515748726     -1.92002924887560      0.00933132405361
  C   0.56766646078438     -1.03027073297845     -0.01768460750367
  N   -0.63624235851524     -1.62821712760574     -0.01105855077404
  C   -1.69637447542804     -0.82485340830531     -0.03277262032807
  C   -1.56064164385554      0.65995076379665     -0.06188170307262
  N   -2.75956442592453      1.26032566322510     -0.07636767111256
  C   -3.64300137877108      0.22747896627248     -0.05902370959450
  N   -4.95545538972170      0.49315206481892     -0.08591939140876
  H   -5.63662018617535     -0.23081169505241      0.03943224333466
  H   -5.24925992383061      1.45112225658856     -0.01682573765877
  C   -3.05063173895359     -1.07144781185644     -0.03278592348296
  H   -3.55702571620084     -2.02235491435033     -0.01968512257379
  N   -0.39094636777207      1.25493259375665     -0.06829841573990
  C   0.70351131427503      0.44200371843542     -0.04806038566910
  C   1.89737812865511      1.15295612860584     -0.06351740995058
  H   1.71247118729141      2.22106516005266     -0.09755710774062
  H   1.33340451672202     -2.95394205835978      0.03091148669913
  H   3.61734103665634     -2.60374420671608      0.04037561020086
  H   4.81892504700580     -0.62801126428685     -0.00335057230913
  H   5.09914508071486      1.60822743601996      0.20328928918644
  H   3.84694946722354      2.72195810824196      0.15913905881170
