35
Coordinates from ORCA-job ./opt_b97-3c_parallel
  N   -4.57549096953139      0.00080706946521      1.35061888646264
  C   -3.53360695869498      0.00055052045570      0.47754274952696
  N   -3.14065557559605      1.20004312805270      0.06556361164875
  C   -1.93009501532421      1.48014717757663     -0.40392060604349
  N   -1.88625810127874      2.62881005938610     -1.11469991301917
  H   -2.69271337481408      3.22585518358627     -1.06311242696935
  H   -0.99251047343434      3.03939753764951     -1.33822212476171
  C   -0.70788200413328      0.73853530838715     -0.20969437914928
  C   0.50939058331032      1.43579757182926     -0.11410372056036
  N   0.59824574332121      2.83527345925168     -0.03438708805063
  H   1.54340636067962      3.10829447541831      0.22630655175039
  H   -0.06963688898675      3.24150406263443      0.60444049339179
  C   1.70802395015698      0.71780019032329     -0.08055604987600
  C   1.70781197493561     -0.71841671410427     -0.08061021803835
  C   3.04740257276388     -1.08847376031064      0.10540328224185
  N   3.84457115168429     -0.00063344819383      0.20552577691949
  C   3.04770771689255      1.08745767530362      0.10549350649765
  N   3.53403015458795      2.41958372258615      0.20163947712123
  H   3.82245770244668      2.76495399247951     -0.70804385543051
  H   4.36607631105464      2.41962101943864      0.77898694208602
  N   3.53334548491655     -2.42073695683994      0.20145924504237
  H   3.82130273054959     -2.76627956554465     -0.70830534348942
  H   4.36560544573658     -2.42098759397980      0.77849522514072
  C   0.50897494283796     -1.43605770565086     -0.11412743984116
  N   0.59740995344147     -2.83555838717561     -0.03435371561363
  H   -0.07057837024985     -3.24155442120829      0.60451203539852
  H   1.54248603127890     -3.10884976788455      0.22635370999149
  C   -0.70810500937314     -0.73843472707335     -0.20968199462176
  C   -1.93055130240113     -1.47967919313262     -0.40371640687316
  N   -3.14099090636753     -1.19913277147461      0.06585069519216
  N   -1.88716021528565     -2.62845594477602     -1.11434312924311
  H   -0.99357473993025     -3.03933851505401     -1.33797182157574
  H   -2.69380522923252     -3.22523270498459     -1.06261047782311
  H   -5.08773724491729      0.85885314802887      1.44537365595707
  H   -5.08798888224371     -0.85706551066537      1.44558439781063
