25
Coordinates from ORCA-job ./opt_b97-3c_parallel
  N   -1.77417280868324     -2.46250285741381      0.47765854918202
  C   -1.80856552164301     -1.16020996239192      0.10441690202010
  N   -3.04503439309767     -0.74743741153992     -0.16515514833117
  C   -3.46480405261448      0.49519497288264     -0.32635286676325
  C   -2.82390468940437      1.69902524647588     -0.08715900959214
  C   -1.47316007687418      1.88422265199147      0.16769351543272
  C   -0.41963548939938      0.97257184832115      0.15898601100651
  C   0.87729830812737      1.52768372768326      0.27783617941543
  C   2.00809740376783      0.76878002695743      0.13575569774213
  C   1.87517421050306     -0.66867499566118     -0.14614071999247
  C   3.15857379855669     -1.18113638592264     -0.29731971158775
  C   4.07237263706664     -0.11367879584047     -0.10978943142782
  C   3.39013574126148      1.06841856436162      0.15040125350343
  H   3.82855633532224      2.03819760688777      0.32482444977287
  H   5.14716592060347     -0.20995729932163     -0.16528161008316
  H   3.41910459650262     -2.20564766715529     -0.51393980483176
  C   0.60700867278471     -1.23574957058870     -0.18567785669652
  C   -0.54498012870473     -0.47603994183307     -0.02086089157849
  H   0.52192897121896     -2.29625878649820     -0.38539351910921
  H   0.95643481573819      2.59657928792397      0.43669522646073
  H   -1.17242799696320      2.91367492207940      0.32831428721624
  H   -3.44045535618061      2.58638132785758     -0.14785823073391
  H   -4.50360989862353      0.55822722294858     -0.64025911528627
  H   -2.66354599030742     -2.91909652961535      0.57987080340385
  H   -0.99134850095761     -2.82815323888855      0.98538242595765
