23
Coordinates from ORCA-job ./opt_b97-3c_parallel
  N   3.97730240612222      1.66890178593534     -0.43859966921982
  C   3.10485030621354      0.73869861825555      0.01301817938126
  N   1.84967371936780      1.15572397097124      0.11502163994909
  C   0.71560359096348      0.47659438512434      0.16052115993719
  N   -0.36725370713676      1.22630475037529      0.40894778626556
  C   -1.54726364559002      0.65486336760721      0.23018091212462
  N   -2.74266444033951      1.21889580028159      0.40466607167792
  C   -3.59117742308915      0.21883172951198      0.02839187922628
  N   -4.90787774440703      0.39781264242803      0.05969631174803
  H   -5.51935528173081     -0.34532770248394     -0.22332423501174
  H   -5.28367419320985      1.27800270193820      0.36006542422657
  N   -3.05790609413401     -0.97331879585506     -0.37886277173697
  C   -1.74906586830234     -0.74022471563470     -0.25513801056996
  C   -0.64542138457007     -1.54597859798736     -0.40471356795126
  C   0.61163975453742     -0.99854917391736     -0.12342811986983
  C   1.69740744952333     -1.85274229120001      0.04290857348279
  C   3.01535416822732     -1.55975203271587      0.39131466888140
  N   3.68169671143416     -0.42655237117774      0.37748848493765
  H   3.61530892772033     -2.41339741533942      0.69535774870783
  H   1.47242325041223     -2.91147844565289     -0.02040417216309
  H   -0.74040921070351     -2.59716524303869     -0.64376824703067
  H   4.95782737255333      1.48955469917242     -0.32129286941349
  H   3.66062983213790      2.62001478630189     -0.49350511967937
