26
Coordinates from ORCA-job ./opt_b97-3c_parallel
  N   -4.06144837023549     -1.86713966005343      0.08088780873006
  C   -3.19555543932442     -0.78832482103596      0.04457847579334
  N   -1.91687573655081     -1.14370043058384      0.04249952511105
  C   -0.79178228046341     -0.43268047220738      0.04251111551104
  C   0.37494688795602     -1.21390513634843      0.07041376679319
  C   1.62644018460924     -0.64155553772597      0.03771541437058
  N   2.82700412935941     -1.25229600949129      0.05554736546301
  C   3.72348417723902     -0.23508643217228      0.00594003135887
  N   5.04059515581509     -0.51462799666847     -0.02261239481863
  H   5.31365421748765     -1.46067397194104      0.17776968448540
  H   5.71252338693857      0.20818385639812      0.15396330797444
  C   3.13325587287114      1.06054156656969     -0.04696169033289
  C   1.76968535815021      0.82769186911477     -0.02588674710375
  C   0.62904536311521      1.61783854849039     -0.04832297561681
  C   -0.64800123817679      1.06126790391120     -0.00894104102230
  C   -1.73531039578851      1.94136595611695      0.00431242851397
  C   -3.09715284556402      1.69838985009874      0.04699124776320
  C   -3.76643951503918      0.49331541286362      0.07510496743926
  H   -4.84841041678522      0.53800751914429      0.12612302677740
  H   -3.72494623481634      2.58115000223122      0.06409466759816
  H   -1.45990780253614      2.98997827603277     -0.01798389676682
  H   0.71731241807700      2.69678530933768     -0.08896103176200
  H   3.64912389897408      2.00560597705036     -0.09916218867018
  H   0.25970496218127     -2.28687704397397      0.10647363084550
  H   -4.97785906693225     -1.73866361898215     -0.31100675030986
  H   -3.62413543316133     -2.74053146737560     -0.15972179142528
