29
Coordinates from ORCA-job ./opt_b97-3c_parallel
  N   4.44330313842037      2.61582575849245      0.03748021086356
  C   3.75528657471658      1.67382211956366      0.03107245065949
  C   2.97462784356483      0.52169990860594      0.02286335394956
  C   1.57179120906057      0.41004692860055      0.02285299980713
  C   1.24352837814022     -1.02968254511872      0.00961840961197
  N   -0.01103123781296     -1.48202385261578      0.00614450718553
  C   -1.01852693912457     -0.61345397213969      0.01470490369583
  C   -2.30388625252312     -1.22036041530947      0.01049703272851
  C   -2.31282762107821     -2.64559106529408     -0.00221137097388
  N   -2.44687799082573     -3.79847439386122     -0.01318953852083
  C   -3.57445438318753     -0.64399184918737      0.01622241560463
  C   -3.96853231830491      0.67460268013835      0.02248317319098
  C   -3.17185573422963      1.82162859421072      0.02919222074745
  N   -3.81008355308227      3.04161702104178      0.08726331326084
  H   -3.28851712431612      3.85247961981105     -0.19514071615892
  H   -4.77516154675956      3.07042788978217     -0.19018572756832
  C   -1.77087321546706      1.84385602815151      0.03739366635337
  C   -0.79962755357163      0.85221760235733      0.02791764708893
  C   0.54155067353639      1.30476128290578      0.03177605401810
  H   0.73525187916676      2.36976993814410      0.04229753894668
  H   -1.35374388122534      2.84627464522303      0.05581125387920
  H   -5.03971590987966      0.83952186826826      0.02754451607003
  H   -4.38488138333309     -1.36017948942238      0.00922140646585
  C   2.42303140312150     -1.74970179275732      0.00232245524331
  C   3.49031508115528     -0.81267363021090      0.01033698599187
  N   4.79439056823855     -1.10770467968040      0.00592714771881
  H   5.11456873336465     -2.05738188566384      0.00143187952145
  H   5.48471924575872     -0.37774951899249      0.01594968769683
  H   2.51701389597694     -2.82284613634301     -0.00740101587799
