27
Coordinates from ORCA-job ./opt_b97-3c_parallel
  N   -3.99839970726245     -2.02926229410243      0.00018805031084
  C   -3.20693985086259     -1.17465559849582      0.00032323763481
  C   -2.39344814403985     -0.04101852076463      0.00042116811386
  C   -2.95301820285390      1.29197455921308      0.00100038139303
  N   -4.26878402812412      1.52538189870414      0.00121437044573
  H   -4.92212648169644      0.76104411768082      0.00172366602385
  H   -4.63546649711368      2.45814752409466      0.00239974674849
  C   -1.91562241151097      2.24098666649748      0.00108036108210
  C   -0.71147900317150      1.54444784071754      0.00057334040449
  C   -1.00553481656892      0.10120850831455      0.00016109057844
  C   0.04636322973078     -0.81427289236235     -0.00035657485041
  C   -0.24881435394963     -2.19954556561019     -0.00073916335847
  N   -0.47145405325642     -3.33904859316581     -0.00108391995831
  C   1.40294461112126     -0.38540665609602     -0.00053039433101
  C   2.38932940602669     -1.36659732913153     -0.00115094423428
  C   3.77732539481562     -1.26842204136739     -0.00145566771680
  C   4.54701298385820     -0.12748747825662     -0.00116712153252
  C   4.09091134468377      1.19524314223661     -0.00051143853249
  N   2.87542915964292      1.69310304892686     -0.00007621970687
  C   1.67798937696372      1.07946054143795     -0.00007845595074
  C   0.60286669778288      1.96947139658727      0.00043863414079
  H   0.84745375829111      3.02162291415207      0.00075834252745
  H   4.86678838801919      1.95639575548275     -0.00034701424383
  H   5.62323435948439     -0.25319135076591     -0.00146747678568
  H   4.30769107020713     -2.21230874135166     -0.00197063846542
  H   2.01758521723402     -2.38308353410227     -0.00145566654669
  H   -2.03741496295117      3.31173901742687      0.00142462810965
