20
Coordinates from ORCA-job ./opt_b97-3c_parallel
  C   3.83281520898053     -0.03264673870296     -0.15058623605669
  C   3.12366098792289     -1.12208633760092      0.26272633242869
  C   1.73552218392177     -0.74122970605818      0.25972841484834
  C   1.66909912663448      0.68615597704774     -0.16131874878687
  C   2.94745729441998      1.09027449034720     -0.41504922765783
  H   3.25203158470554      2.07081751254171     -0.74221636834022
  N   0.52256660288008      1.40728346293758     -0.15982866223029
  C   -0.59490692518445      0.76730679422880      0.04625957478261
  N   -1.68491386626237      1.49372044940969      0.42733193021555
  C   -2.91779252108443      1.09777327347656      0.41315262987595
  N   -3.50917491159676      0.07049935866038     -0.25894954230305
  C   -2.86856287991997     -1.00853009023637     -0.58120354382163
  N   -1.67221942056368     -1.48161148505373     -0.14175805682700
  C   -0.64139540186058     -0.74026215463650      0.14626505882846
  C   0.58473145276164     -1.42271733113613      0.45104944657341
  H   0.53917647313249     -2.48415458007474      0.65522658418934
  H   -3.39641286341809     -1.71036778488292     -1.22000467553739
  H   -3.62362637868217      1.74845534294876      0.91903584701801
  H   3.51136593940110     -2.09142878270854      0.52898155583356
  H   4.90583827521198      0.00666066679272     -0.26621244143292
