29
Coordinates from ORCA-job ./opt_b97-3c_parallel
  N   -5.16093263517762     -0.08951810884165      0.10881343393839
  C   -3.82227088093831     -0.10571438214601     -0.01672020585910
  N   -3.32177572943213     -1.36399203266847      0.02275891155823
  C   -2.03028311149213     -1.64023454627564     -0.00728440001487
  C   -0.86333894208898     -0.87061581200030     -0.02056806480232
  C   0.33988004927963     -1.58736679286064     -0.03783901796345
  C   1.54539733084391     -0.93089735953810     -0.06655529339617
  C   1.58696945620466      0.52400060626536     -0.06455226743956
  C   2.95533756186790      0.84675289607494     -0.04882439104354
  N   3.51519602524417      2.12078246584712     -0.04311347700203
  H   4.52372799556960      2.06202550249702     -0.04422765838645
  H   3.20906915962932      2.69311596404527     -0.81764373767499
  N   3.73034368770268     -0.25729502038264     -0.00259942623351
  C   2.90175229085645     -1.32652536081640     -0.00181544204377
  N   3.41324947852272     -2.59939531156837     -0.01321139473540
  H   4.36782555190393     -2.64996261091885      0.30375037070584
  H   2.82834329645408     -3.31088922152923      0.39087089348405
  C   0.42836863490968      1.27596246069508      0.04625731970170
  N   0.52519414294707      2.64176903524205      0.18435422421400
  H   -0.23384739770487      3.09263140336582      0.66399859730331
  H   1.42399538585630      2.95481651883185      0.52040718101970
  C   -0.84364565306092      0.60758519371972     -0.01994211763977
  C   -1.98279659385308      1.37913067683682     -0.16215866107705
  N   -3.29146451528943      1.11148809119918     -0.18155021425837
  H   -1.81100206456686      2.43968135678337     -0.31991336835124
  H   0.29209778650048     -2.67009476987053     -0.02715467010166
  H   -1.84241863884558     -2.71260323581665     -0.01372461353174
  H   -5.65554250629551     -0.95875798826259      0.18337282073270
  H   -5.64954266874796      0.78382671649127      0.04182778759790
