26
Coordinates from ORCA-job ./opt_b97-3c_parallel
  N   -4.26787086714321     -1.75532569566625      0.12501437562115
  C   -3.31198717571309     -0.75010618960331      0.04663386185330
  C   -3.76208202985723      0.56778642163882      0.03154111666940
  C   -3.00359218770252      1.72603008354394      0.01440448280819
  C   -1.63610205660896      1.90199051751304      0.00109327170052
  C   -0.57213354682734      0.98219974412070      0.00505883050935
  N   0.63752906418467      1.55431507295416     -0.01486766890610
  C   1.71220305752798      0.76095473622422     -0.01070214362624
  C   1.63765243224681     -0.71660286045009      0.01768853850605
  N   2.86692057113698     -1.27219278908778      0.01419547472890
  C   3.70929453854469     -0.21048247183585     -0.01344813005067
  N   5.04036775389889     -0.41922997268127      0.01041299631920
  H   5.66705574697508      0.32472703097108     -0.23253742626391
  H   5.35830115298105     -1.36001542418813     -0.14410457022648
  C   3.05943828804881      1.05958516420655     -0.02865814735589
  H   3.52100912964189      2.03281621624391     -0.04264355570958
  C   0.40239285427462     -1.30074891314026      0.03350735296177
  C   -0.75685906579646     -0.49014363125713      0.02970518697531
  C   -1.97297886857462     -1.16324592786321      0.05140493650376
  H   -1.85683258626270     -2.24310488543968      0.07973379033264
  H   0.30407554485345     -2.37871825954455      0.05352469444844
  H   -1.28648975452873      2.92606119103060     -0.01605906727819
  H   -3.57850552829528      2.64432783633098      0.00388534372936
  H   -4.83798295542531      0.70446127604005      0.04107138374263
  H   -3.98322535208308     -2.66035510401276     -0.20838447945780
  H   -5.18881396229638     -1.50824885094774     -0.19426601543512
