20
Coordinates from ORCA-job ./opt_b97-3c_parallel
  N   3.57691397857271      1.47311281747791      0.69335938078099
  C   2.75278696867370      0.62221607122661      0.06685124730366
  N   3.23500298179653     -0.58569070440905     -0.22993204150147
  C   2.43441063816592     -1.62069255255251     -0.42631645728730
  N   1.17631391129323     -1.82624211227684     -0.08811381559134
  C   0.23631728647970     -0.90827890115700      0.12710562916548
  N   -0.91850322636107     -1.31505148697483      0.62655281521462
  C   -1.95615758677248     -0.49970966421526      0.43549763064363
  N   -3.19363811099543     -0.65233276402933      0.88403084371765
  C   -3.85280928331721      0.40848956876904      0.30960420200517
  N   -3.16759527850360      1.26124844991116     -0.45631080980724
  C   -1.91289624653391      0.74324605210384     -0.40495397232833
  C   -0.71233062344992      1.24154240022795     -0.80371309467721
  C   0.43363657417488      0.51779820073595     -0.37991607288936
  N   1.57644418128277      1.14935445752227     -0.33681528615608
  H   -0.59121887065539      2.21915695154771     -1.24848809358544
  H   -4.91252750561377      0.54011561410841      0.47946278553181
  H   2.92817644853535     -2.48887329551566     -0.85122420697133
  H   3.33343342593853      2.44495484380757      0.75200837867543
  H   4.52410890468947      1.18941903579179      0.86759358455645
