29
Coordinates from ORCA-job ./opt_b97-3c_parallel
  N   -3.10517834971654     -2.36260054003497     -0.11117879112822
  C   -2.59643962007587     -1.07254470057685     -0.07676258542752
  N   -3.37895995303006     -0.00109964467387      0.03049017501177
  C   -2.54730843419184      1.09048119415554      0.06455918481348
  N   -3.07455799092193      2.37488017784713      0.15709950140260
  H   -2.81328706394714      2.96928621629301     -0.61684143134482
  H   -4.08157195501538      2.33863754837808      0.22459321109333
  C   -1.20693505424525      0.72458105307787     -0.01012932859007
  C   -1.21317477752833     -0.71449720657423     -0.10845245410003
  C   -0.06045398017770     -1.46366386601613     -0.02569275348759
  N   -0.12458237617122     -2.83460764326433      0.05062286042568
  H   0.65251835227160     -3.28407483019363      0.50246685327801
  H   -1.00933239477573     -3.18663190478081      0.38681721073274
  C   1.21084169912376     -0.76489925295915      0.00346117749888
  C   2.36414364151928     -1.50131316675703      0.00534667347882
  N   3.61628628236435     -1.11439740970545      0.40492112567031
  C   4.08656001995843      0.07154573236753      0.26991607110913
  N   3.62686246440488      1.14297226246364     -0.45294742169272
  C   2.35615465874954      1.43186535040896     -0.46230592125990
  C   1.21280480873987      0.71781960924436      0.00298123575013
  C   0.00465181240865      1.42641837476364      0.08006808268734
  N   -0.01417174126139      2.80347104542232      0.17248354238606
  H   -0.88964452643667      3.17895414228068      0.50462616130058
  H   0.76816599197664      3.20897143322879      0.65705053849264
  H   2.12740925865221      2.37645423448700     -0.95801125325148
  H   5.03815651297511      0.26391931548849      0.76195069384227
  H   2.31322831813252     -2.55918982550584     -0.22123545667291
  H   -4.11526714544814     -2.35187720765292     -0.09740354507880
  H   -2.77611316063405     -2.90587268891154     -0.89716470554180
