24
Coordinates from ORCA-job ./opt_b97-3c_parallel
  N   -3.91346015878629     -1.68388126222614      0.07774344551073
  C   -2.94463644393246     -0.70333170784682      0.03296052014644
  C   -3.32186820130791      0.62330919566065      0.02753439475322
  C   -2.50131044182433      1.76278312610221      0.03721733186993
  N   -1.20591268005387      1.92717528172205      0.02217187666857
  C   -0.22547217678431      0.99337508924567      0.01195387963038
  C   1.06108167119217      1.50692143289231     -0.02558564851495
  C   2.18177979903534      0.67956536730181     -0.02267489740683
  C   2.00411425012296     -0.78173271221067      0.02883884720830
  N   3.20995321567980     -1.42928468450428      0.03097310760370
  C   4.10903111740810     -0.44033799882753     -0.01582857584431
  C   3.55179968726155      0.86774708617027     -0.05033640530197
  H   4.09314952127114      1.79893886174536     -0.08883917005036
  H   5.16600084192144     -0.67391327683835     -0.02445935938598
  C   0.75515934807626     -1.32270054979718      0.06711850049832
  C   -0.40303813370399     -0.49532927985894      0.04946223986305
  C   -1.60250372343384     -1.16230873312861      0.06278218449237
  H   -1.50865313929111     -2.24307458447054      0.10181452410789
  H   0.63770197923612     -2.39809427471842      0.10241676040938
  H   1.15382782559246      2.58360889731043     -0.04976033995464
  H   -3.05277672173784      2.70054035439269      0.04475948455785
  H   -4.38717767343485      0.82908756677846      0.01942884428706
  H   -3.65902065626387     -2.59801399790006     -0.25303342889226
  H   -4.84611343744269     -1.41462081599434     -0.18205272915588
