25
Coordinates from ORCA-job ./opt_b97-3c_parallel
  N   -1.41306146812725     -3.33951815236561     -0.01074875194433
  C   -1.43215221071482     -2.17774417660747     -0.00198578821122
  C   -1.72738732339284     -0.78728116148359      0.00585406307003
  C   -3.11075415541576     -0.49709310535338      0.01232871777182
  N   -3.99206095176576     -1.52412168597366      0.04000391524674
  H   -4.97551712313564     -1.35257703001910     -0.04140128260447
  H   -3.68012428896273     -2.47846696714842     -0.01218519834533
  C   -3.67399220927145      0.80140020202573      0.00555170803705
  C   -3.05843019426712      2.01878146938058     -0.00097642620897
  C   -1.69989461511327      2.33985049543384      0.00019183574679
  C   -0.57983265683192      1.52876246425485      0.00525103030602
  N   0.59172484828618      2.23937837505276      0.00620379222408
  C   1.69217821204966      1.54509893569448      0.00452541209493
  C   1.69043578883577      0.06275955593361      0.00051650366795
  C   3.03268486488830     -0.29758490843617     -0.00166831480122
  C   3.60902608760275     -1.57155047318084     -0.00576799874159
  N   4.11414650657697     -2.61864590400440     -0.00952846277408
  C   3.73493293847985      0.96024889737675      0.00133240122600
  N   2.96280280314127      2.04153489090504      0.00517094486433
  H   4.81218518282399      1.05241661708246      0.00058429406463
  N   0.56626626581009     -0.63697913642242      0.00150129019162
  C   -0.58023536726099      0.05630819422014      0.00481368700213
  H   -1.45579216567114      3.39376625197138     -0.00225775580654
  H   -3.72589896227867      2.87089702809690     -0.00648092238883
  H   -4.75757213748546      0.82494018626667      0.00949774371248
