29
Coordinates from ORCA-job ./opt_b97-3c_parallel
  N   4.90996165257066      0.33740922070030     -0.33680847322261
  C   3.61576031910090      0.26148559758881      0.02111113574380
  N   3.23815029264815     -0.99323637095465      0.36768472272435
  C   1.98446599815801     -1.40142231719017      0.35758559563782
  C   0.75929761479006     -0.78949210342947      0.06682696649363
  C   -0.37168936471315     -1.63507349452511     -0.02254652564865
  N   -0.24648039347381     -3.00655718852928     -0.07622073508109
  H   0.50483303072426     -3.37562841756880     -0.63080434663182
  H   -1.10636739585242     -3.50482291706969     -0.22094779960924
  C   -1.64930112343405     -1.06262922925395     -0.00420557267636
  C   -1.81033902846267      0.36755529764040      0.09417576949862
  C   -3.20454430896381      0.57947892523671      0.03960472105331
  N   -3.87291347653298     -0.57539050841930     -0.10885726765535
  C   -2.94352339746965     -1.56672558210001     -0.15353560862980
  H   -3.26229701608870     -2.59207544583285     -0.27113123262648
  N   -3.85541712670954      1.81823273043756      0.07192876072921
  H   -4.84839244286952      1.68193956907448     -0.06179767300393
  H   -3.70997538414771      2.31007117520124      0.94428017384832
  C   -0.72808324363094      1.23636612320020      0.00737099052729
  N   -0.97272286804294      2.58558576922976     -0.08898124269331
  H   -1.91923779408999      2.80535537271411     -0.37023703131194
  H   -0.28965425640246      3.13544420331734     -0.57833353209845
  C   0.59255776214605      0.68440029030327      0.03009936560556
  C   1.65514571538474      1.56753550174580      0.11281955854243
  N   2.97995452940182      1.43143799473978      0.04403687359569
  H   1.38625812585634      2.60854030444796      0.25723933767023
  H   1.90348964762625     -2.44334535911178      0.65530566066549
  H   5.48827338893803     -0.47638844783025     -0.24074144936617
  H   5.32049985353857      1.23951681133725     -0.49201679478037
