34
Coordinates from ORCA-job ./opt_b97-3c_parallel
  N   4.61100438551555      0.17385501910282     -1.19754124914255
  C   3.48703286527769      0.12417612224700     -0.43192297841263
  N   3.09281862165739      1.31023995392218      0.04239917442699
  C   1.84111310044597      1.58678963872834      0.37400931711026
  N   1.70279431869238      2.83686032312778      0.91273159685821
  H   2.56897063299864      3.31166481252578      1.09849189810998
  H   0.95444752641075      2.99893657575507      1.56018951317297
  C   0.64571504368751      0.82508027596119      0.15407809730108
  C   -0.54045516039060      1.54773111354249      0.05026039808978
  C   -1.76551905116592      0.92047205665219     -0.03462260068043
  C   -1.83482296725913     -0.52822671478442      0.05624881534325
  C   -3.19148138464299     -0.88511467041905     -0.05601992707194
  N   -3.68859006306872     -2.21779681928479     -0.04120714106912
  H   -3.74011736122225     -2.58801941357694      0.90088731713893
  H   -4.62019979980059     -2.25726077050589     -0.43008482398301
  C   -3.93881037356801      0.29309594111137     -0.23225321995695
  C   -3.07447927210734      1.40051392697999     -0.24127618306775
  N   -3.44960006988732      2.74569389321323     -0.32875497213370
  H   -4.35163953487140      2.86613821309023     -0.76319346590808
  H   -2.77219558579731      3.30697464165964     -0.82306233156455
  H   -5.01511790245151      0.33606200371028     -0.33452013188684
  C   -0.66958221204728     -1.29113539242532      0.09629417452155
  N   -0.81862613752801     -2.67325258241524      0.06402641029222
  H   -0.07862291476821     -3.17115275686373     -0.40501746025897
  H   -1.73996197764824     -2.93980384817650     -0.26667212229387
  C   0.60835818477948     -0.64927541789731      0.15312122579588
  C   1.80309989217797     -1.41253641138125      0.23757805806582
  N   3.03169081052134     -1.08876178270896     -0.18052111405492
  N   1.76834319464897     -2.70579206132416      0.69754188274164
  H   2.67842802457039     -3.10093921871312      0.85908582652330
  H   1.03874794046663     -2.96572353696464      1.33945888399451
  H   -0.48407847915822      2.62641163080239     -0.01301087136067
  H   5.11041813667052     -0.68639211818383     -1.33192791326528
  H   5.14361514846170      1.02384792929323     -1.16596308267507
