28
Coordinates from ORCA-job ./opt_b97-3c_parallel
  N   3.02418199775742      3.08106213953153      0.00201111676072
  C   2.69436748379229      1.96652690206060      0.00120082684883
  C   2.42317069346953      0.57353692318099      0.00044283726237
  C   3.61415743058061     -0.21920447041755      0.00086771298719
  C   3.64324410843998     -1.61282291441468     -0.00005651781057
  C   2.58910699219317     -2.50918775768324     -0.00099701354752
  N   1.28284183356660     -2.35390628654676     -0.00083129398716
  C   0.56239740477593     -1.22356539371203     -0.00043894517366
  C   -0.81611433796355     -1.45084040323627     -0.00007285097963
  C   -1.72144836938162     -0.41085248509312     -0.00040037547620
  C   -1.23707026347287      0.97358406768321     -0.00125686426945
  N   -2.24895213225007      1.86562861037696     -0.00177276370382
  C   -3.36946311164699      1.11614459002936     -0.00127423753751
  N   -4.57866701020285      1.67071118822224     -0.00154938280586
  H   -5.40962170458478      1.10714381822438     -0.00118899569425
  H   -4.66186654061152      2.67147415254135     -0.00213883375986
  C   -3.11330963041578     -0.30765379180185     -0.00044809075517
  C   -4.09252937413520     -1.29669034272917      0.00016623304131
  N   -4.95806080610847     -2.07738753897088      0.00057856958398
  C   0.11586090840891      1.23170838763054     -0.00142557577126
  C   1.06167277582533      0.19625852489632     -0.00063722976334
  H   0.43469352935605      2.26317084313714     -0.00185852875072
  H   -1.13636424971817     -2.48196140980865      0.00011035781006
  H   2.89156815997485     -3.55350417908544     -0.00178571205706
  H   4.62843065296864     -2.06531823639676     -0.00001714930759
  N   4.80896011183465      0.42382108750639      0.00198114569446
  H   4.87620193762788      1.42513729854800      0.00281905219798
  H   5.66251807912001     -0.09945216157259      0.00271951686374
