30
Coordinates from ORCA-job ./opt_b97-3c_parallel
  N   -5.19005093714884     -0.28263361967460     -0.98662604567584
  C   -4.07981324734500     -0.29900564952749     -0.63695900922861
  C   -2.74020544222275     -0.36983415623049     -0.20561200178198
  C   -2.22228979046625     -1.65666500661429     -0.04035785798978
  C   -0.90195246854630     -1.98416162134094      0.37475171155451
  C   0.25246800813995     -1.24917806280379      0.36830521340161
  C   1.45592670569185     -2.01653177361914      0.58289696156547
  C   2.66137467274560     -1.47836027937030      0.31255595491754
  C   2.76715100067217     -0.11298251676996     -0.18953368401653
  C   4.09502424591260      0.07733067677617     -0.45267310428674
  C   4.73628026312213     -1.16941288643742     -0.08237337255234
  N   3.91118276691961     -2.09155948612889      0.36387458049220
  H   5.79773134660218     -1.36811959347053     -0.15079171787325
  H   4.57370550788049      0.96049552922820     -0.84277266103674
  C   1.59767033982119      0.69016794938910     -0.28822831703437
  C   1.75265874475165      1.99567970542315     -0.80822396637852
  N   1.95087455674777      3.02273600845718     -1.31282815384813
  C   0.35376584182761      0.18059166247256      0.07319215897284
  C   -0.74343446912355      1.07942737654720      0.34273631444752
  C   -0.41470779282259      2.35486648082285      0.85004136056332
  N   -0.25898711940899      3.40341761013858      1.33092367202675
  C   -2.12016419397108      0.87026932821666      0.17747403991681
  N   -2.96027283421273      1.91196081855112      0.35510705350984
  H   -3.95565769056182      1.79220870143003      0.33130264941549
  H   -2.60334467217620      2.83145318273263      0.54703554253529
  H   1.37237623267511     -3.05537397844528      0.87177091264214
  H   -0.77481802425253     -3.03101199266794      0.62258822476318
  N   -3.03298372519500     -2.72666969046602     -0.24347612017331
  H   -3.95682410436937     -2.59966069692368     -0.61973285424558
  H   -2.62906698378625     -3.63705642119407     -0.35991776980279
