31
Coordinates from ORCA-job ./opt_b97-3c_parallel
  N   5.51276156597350      0.45713950452933     -0.19932313579959
  C   4.35115755494519      0.41556890570638     -0.12700057408810
  C   2.94503658897489      0.37928931355539     -0.03884537665869
  C   2.30791783361593      1.63889069676287      0.04935100643453
  C   0.93859585092862      1.88383344327663      0.08079017873477
  C   -0.19506835776141      1.07823396768869      0.04486730661792
  C   -1.41859966081782      1.76403530310771      0.05124097820202
  C   -2.62991641542159      1.10184438104903      0.02931256094624
  C   -2.62490124096500     -0.37480020624244      0.00128873922119
  N   -3.86499823082960     -0.87445619074147     -0.02333880577431
  C   -4.67132219074723      0.23245246574833     -0.00940713225089
  N   -5.99753351716094      0.06032628564516     -0.03456475564253
  H   -6.63281486015676      0.83209115806660      0.03176699543161
  H   -6.36249314291337     -0.87495327707304     -0.01155125339405
  C   -3.96760781901889      1.46524928184618      0.02168259772483
  H   -4.39304205186216      2.45502800106505      0.03385291695920
  C   -1.42742400661353     -1.06804731817151      0.00037991771088
  C   -0.19617462023954     -0.41167251825423      0.02387679951578
  C   0.97236359535741     -1.22135819886281      0.04742619989550
  C   0.73854081052216     -2.61885259143764      0.12238471031426
  N   0.63950169894895     -3.77542362591832      0.19146455313753
  C   2.36113339280757     -0.91105474488469     -0.02182109941256
  N   3.22538825104076     -1.95822549686315     -0.11533664002458
  H   4.20904580313493     -1.80970308926063      0.01855475245363
  H   2.89210099741546     -2.89774918751611      0.00453004852900
  H   -1.47135817043684     -2.14615364208631     -0.02115079779886
  H   -1.39437650805645      2.84592815780643      0.07140505569109
  H   0.70154656952976      2.94039191892012      0.14216833380975
  N   3.11438978794608      2.74880834891703      0.14615736290596
  H   2.70526290962404      3.63332768788782     -0.09380702190381
  H   4.08561010283587      2.66306749563364     -0.10043944008768
