28
Coordinates from ORCA-job ./opt_b97-3c_parallel
  N   -3.20979102606754     -3.43828414535366      0.34507105028904
  C   -2.61831226057795     -2.44211536990720      0.23969364417929
  C   -2.06762148484471     -1.16400157901630      0.11309682122651
  C   -2.89414241610725      0.00021003768927     -0.00081591307382
  N   -4.21620562145639      0.00030634334384     -0.00104079465479
  H   -4.73128520045322      0.86117612816422     -0.08559844537630
  H   -4.73143935454505     -0.86048954605359      0.08332918165042
  C   -2.06741566881531      1.16430211599564     -0.11447641811650
  C   -2.61787966145917      2.44249054848422     -0.24131360957623
  N   -3.20918494306896      3.43870782792665     -0.34720273177997
  C   -0.73943875720648      0.73334956272552     -0.06708052138333
  C   -0.73956517689428     -0.73323810592587      0.06614519725075
  C   0.46503709960679     -1.43483114334357      0.06067474829254
  C   0.47800880303296     -2.85023111945546      0.07150981235571
  N   0.45841244284017     -4.00957390965120      0.09166222809887
  C   1.69580853304864     -0.74654123672634     -0.05132539649312
  N   2.74985281351040     -1.50352997879773     -0.32366516673084
  C   4.02647660512208     -1.17146991540930     -0.39927456319635
  C   4.65805372061686     -0.00034078013834      0.00026212385163
  C   4.02655060295328      1.17087957558726      0.39965219921037
  N   2.74999584168271      1.50312830874877      0.32372733657903
  C   1.69590653047294      0.74630327870226      0.05110108504194
  C   0.46526272018474      1.43477401949879     -0.06118771572570
  C   0.47841397303013      2.85017625817252     -0.07176635432655
  N   0.45891303383746      4.00953583573969     -0.09095746389541
  H   4.66128494314388      1.97148755129931      0.76555332324923
  H   5.74133465371984     -0.00042201975973      0.00039767221145
  H   4.66118567309343     -1.97217864773964     -0.76499895545790
