29
Coordinates from ORCA-job ./opt_b97-3c_parallel
  N   4.51079247609387      1.66859479656446     -0.19664893125257
  C   3.62806187686126      0.91023755800575     -0.13360177932192
  C   2.69377508145385     -0.12151121360795     -0.05368422901406
  C   3.09931123890585     -1.50448519084836      0.02351495039795
  N   4.38016784889911     -1.88467107556083      0.02147954283867
  H   4.64067401956839     -2.85057786899922      0.08130301999391
  H   5.11379247919547     -1.19874478631835     -0.02992419787912
  C   1.96372123329456     -2.33384577782362      0.09536015914245
  C   0.84394147509563     -1.51083325101269      0.06659745594310
  C   1.29605511858209     -0.10887898821249     -0.02497831865959
  C   0.35160934845724      0.91133455137474     -0.05886362920470
  C   0.78341882965173      2.25623735642570     -0.13267093037821
  N   1.11111910913647      3.36898279610754     -0.19367844329006
  C   -1.04817338419349      0.62955349099274      0.00241016951709
  C   -1.92088629747602      1.70099729109363      0.07445233724863
  C   -3.31647160710779      1.73827694082452      0.16166505035320
  C   -4.21414059134749      0.71109423938398      0.14132022361662
  C   -3.91104774512493     -0.66708782263049     -0.00438473511315
  N   -2.73897493353222     -1.26290012961608     -0.01619938196996
  C   -1.48318144447375     -0.79435365372019      0.03636440823153
  C   -0.50954680004470     -1.79221425243435      0.08376413000596
  H   -0.86025331513972     -2.81370136866067      0.11189971621072
  N   -4.98449869588091     -1.52481966655276     -0.07212775943971
  H   -4.75452024645757     -2.46472727661981     -0.34567989811086
  H   -5.85651205475211     -1.17437306119045     -0.42608009257457
  H   -5.26261863601849      0.96887755835118      0.23513639414430
  H   -3.73818871752092      2.73110278727691      0.25744653986532
  H   -1.45262557087050      2.67634280087633      0.07951917161017
  H   1.96947129224545     -3.40977312256867      0.15740344718908
