23
Coordinates from ORCA-job ./opt_b97-3c_parallel
  N   3.84087752905165      2.44821365033644     -0.62131088199975
  C   3.12498151022742      1.54758152449834     -0.43961992815697
  C   2.35949742835972      0.40646932751557     -0.20740545589146
  C   0.97520986360381      0.24581581994373     -0.15679099180110
  C   0.69938803094863     -1.19733108996854      0.13830648588960
  C   1.90395000543444     -1.84530771084624      0.30850393975632
  C   2.92650704601632     -0.88435763299936      0.09575342147962
  N   4.23600096597824     -1.10406206482813      0.15277732544923
  H   4.88805043972894     -0.35736794263064     -0.02025369287603
  H   4.60641585944728     -2.00992602443711      0.37399499451406
  H   2.04930553257116     -2.89187046736914      0.51826141430844
  N   -0.53706989802385     -1.69046704652190      0.11005609150225
  C   -1.51926962237842     -0.81520280742986     -0.10090583333744
  N   -2.71321695478023     -1.34548392122553     -0.38455477066727
  C   -3.89784223909295     -0.78857994826815     -0.40152230221032
  N   -4.35958404487917      0.34461148208826      0.14581578254768
  C   -3.58716039632143      1.37289735215962      0.43109839743771
  C   -2.23184343813735      1.58629150345221      0.15954361689679
  C   -1.24397659393279      0.65452211860062     -0.12991634236576
  N   0.00947949279476      1.13658598792947     -0.25600088726615
  H   -1.86666429833440      2.59813892345288      0.28632832527283
  H   -4.10705224443414      2.20380333636443      0.89934443769391
  H   -4.67277251034732     -1.40130973751727     -0.85144842847606
