29
Coordinates from ORCA-job ./opt_b97-3c_parallel
  N   4.23709610051035      2.59500115136289      0.14559952802179
  C   3.59601696610266      1.62148553418404      0.11120226737512
  C   2.92869583920219      0.40083925586095      0.06864430500739
  C   1.55443441411508      0.13065923976966      0.04547437024408
  C   1.39501250900284     -1.34753379332956     -0.00330174131287
  C   2.66221860387701     -1.92305891199754     -0.00864249348467
  C   3.60064542169888     -0.87352272295713      0.03448920707129
  N   4.93361106684565     -0.98820807028761      0.04597903859220
  H   5.51412498882387     -0.16829981283673      0.07120696129084
  H   5.38243530033057     -1.88352314858383      0.01261582893286
  H   2.89830041512712     -2.97481432849439     -0.03895224612131
  C   0.11101771926850     -1.83987298953512     -0.03010696398587
  C   -0.98727366584458     -0.96500855734256     -0.01250174344849
  C   -2.25985647611049     -1.51996612560995     -0.03818581031835
  C   -3.53594872938597     -0.93648957040938     -0.02247218748001
  N   -3.90315031688740      0.34089566991701     -0.01383929025018
  C   -3.09609472317308      1.39240932129598      0.00417541167032
  N   -3.76102254499545      2.59145549769784      0.04178776155562
  H   -4.73713516519580      2.55328106626075     -0.19306384475576
  H   -3.27288990897364      3.42435444516646     -0.23203340312070
  C   -1.68947294146344      1.47039105915121      0.04102315554090
  C   -0.71113713961367      0.49342875673380      0.02956797974401
  N   0.54980342351571      0.98314031073800      0.06013344883231
  H   -1.27380076634487      2.46920429062959      0.08505104057854
  N   -4.60524493042462     -1.80439055633248     -0.07916982949160
  H   -5.48927232344657     -1.39077951423176      0.16201665999903
  H   -4.47014412343041     -2.74161387015735      0.25494166941753
  H   -2.26949189292894     -2.60409451975338     -0.08341657720492
  H   -0.07234031290145     -2.90699751140934     -0.06313629289911
