26
Coordinates from ORCA-job ./opt_b97-3c_parallel
  N   -2.22896121354036     -3.50870531924497      0.00178919207161
  C   -1.91535078245233     -2.38960072405447      0.00110442918297
  C   -1.66342937621104     -0.99260738255503      0.00056835212696
  C   -2.85617102123401     -0.23657202932684     -0.00002346397200
  C   -2.93006150635136      1.17480201248479      0.00042970240321
  C   -1.93903514394567      2.10367232261644      0.00125090747344
  C   -0.53761095619235      1.94445333650287      0.00155204412070
  C   0.17137952845533      3.18189767507590      0.00229225174871
  N   0.58821792311735      4.26495568197963      0.00288129534220
  C   0.24134833641976      0.78176955901738      0.00112277837592
  N   1.56224749855072      1.06287135402730      0.00134536489871
  C   2.42117150216299      0.07215420555266      0.00127147015813
  C   2.01028026725237     -1.35623390956500      0.00103413256084
  C   3.19500450787845     -2.06617508492339      0.00099172692932
  C   4.20873648627875     -1.07344990821877      0.00121381200851
  N   3.76657715191712      0.19795484503437      0.00136464368139
  H   5.27347710657796     -1.26590544699105      0.00125897017791
  H   3.33662858848044     -3.13423537293411      0.00083722224844
  C   0.65861173456097     -1.63964795249552      0.00072134370424
  C   -0.28441358097755     -0.61068452421300      0.00073812451897
  H   0.32808951746294     -2.66847161407424      0.00038765325132
  H   -2.26895408053030      3.13305352562638      0.00164247566502
  H   -3.93608647101898      1.57725620445958     -0.00011000247756
  N   -4.05212782514777     -0.88142781592524     -0.00216491793137
  H   -4.11635198407312     -1.88307746707719      0.00197631379810
  H   -4.90824543784030     -0.36285340797852      0.00389330973431
