30
Coordinates from ORCA-job ./opt_b97-3c_parallel
  N   -5.65697005926038     -0.01202323605674     -0.26003748031269
  C   -4.49712709130698     -0.07352997520506     -0.16599422593760
  C   -3.09961840762770     -0.16497584179504     -0.04755527475122
  C   -2.37548887562939      1.05649987533174      0.14908991098632
  N   -1.08008511423920      1.27226123028196      0.11107232254918
  C   -0.02828403464558      0.46171006549004      0.04404111209597
  C   -0.03555711605666     -1.02543451578974      0.13722572224032
  N   1.10044950740829     -1.76167246122580      0.23346891365677
  C   2.26264047123326     -1.14376456427505      0.15095499161520
  C   3.54492160242444     -1.68538787145009      0.21241540504303
  C   4.44001881708820     -0.61435895253144      0.04560203972687
  N   5.77591670893879     -0.69678682879165      0.03719503224192
  H   6.24544424980562     -1.57296003308664      0.17120090401287
  H   6.34471763727508      0.12102971929787     -0.07865560189519
  C   3.72647378406561      0.63335049467348     -0.12255669004230
  C   2.39788041826212      0.33469759144207     -0.05667155569999
  C   1.21821177101788      1.09343777665223     -0.09124846933850
  C   1.29066251796300      2.49996113395174     -0.20624299736431
  N   1.43415589197821      3.64803048802679     -0.30811420039704
  H   4.17774433185508      1.60363748297882     -0.25355811816277
  H   3.79503353258648     -2.72382110736542      0.34803986698089
  C   -1.18236305555074     -1.78737649989009      0.06586551024235
  C   -2.54534598363444     -1.45644333410579     -0.07812645995570
  N   -3.38143266978172     -2.50999164760717     -0.26922647878367
  H   -4.37816097222717     -2.38864839723001     -0.23816309792611
  H   -3.03447851229943     -3.44368657003931     -0.16150259031296
  H   -0.96657708462327     -2.84867347742951      0.09153254693969
  N   -3.10627150102452      2.17881231313187      0.38866800465863
  H   -4.10041879093040      2.19355472775681      0.24875862234503
  H   -2.60751309216448      3.04775434265917      0.31398701744495
