26
Coordinates from ORCA-job ./opt_b97-3c_parallel
  N   3.86736437135894      2.74495440733983      0.55328653778268
  C   3.28606934362830      1.74871264773431      0.38022879385118
  C   2.65307006779245      0.52775819696912      0.16518849102309
  C   1.28041444588863      0.23300450512346      0.13268598885849
  C   1.14549889555564     -1.22085113367689     -0.15138855572769
  C   2.41146642600510     -1.75522672058561     -0.29553233487710
  C   3.34178257947453     -0.69919522741658     -0.10264113141628
  N   4.67080973367419     -0.80403071395822     -0.15749777935038
  H   5.25338338016374      0.00178066899452     -0.00897044635070
  H   5.11929629757633     -1.67890809016608     -0.35364223935272
  H   2.65169195186962     -2.78434678582597     -0.50459310909263
  N   -0.03103145741947     -1.84700303225919     -0.20926373829371
  C   -1.14028036867725     -1.12008805396343     -0.05758969428556
  C   -2.32134993101276     -1.83946757648186      0.13300617397594
  C   -3.61127930221312     -1.37884816973132      0.37472232040811
  N   -4.14945520336412     -0.18065755006196      0.25923440846291
  C   -3.44990656905723      0.90887756983855     -0.10085179639285
  N   -4.20999775601797      1.93242256741090     -0.56128783401748
  H   -3.79052186085370      2.84270738371402     -0.61280177356771
  H   -5.20412496071581      1.86519209931940     -0.44012338515879
  N   -2.14935312814687      1.19159361536347      0.00064111537479
  C   -1.11047874145358      0.37542288402699      0.07256082286825
  C   0.14495419292272      0.98932130385786      0.23809524137824
  H   0.17406220249961      2.06197897954162      0.36720632199240
  H   -4.32093039700357     -2.13960360318078      0.68741226066724
  H   -2.18134237197434     -2.91179230742617      0.17691570344027
