30
Coordinates from ORCA-job ./opt_b97-3c_parallel
  N   3.87156490920949      1.89236410183231     -0.22119074473174
  C   3.17504864250993      0.69436261744839     -0.13763905703500
  N   3.83418133491416     -0.48401013569194     -0.05037022360742
  C   2.90840979968473     -1.46153426939751      0.06788493342614
  C   1.60927573080016     -0.92686967442387      0.08241552452950
  C   1.78608769279446      0.50346520662200     -0.04566107323256
  C   0.67957783396900      1.32779228445076     -0.05800643438103
  C   -0.61184044159367      0.81856405609407      0.01328318608410
  C   -1.65975654311387      1.80269598064429      0.17367691020910
  N   -2.91651973657605      1.79025119093776     -0.24006295919082
  C   -3.58323874998310      0.70076066620754     -0.60663069656298
  C   -3.31409267824301     -0.61966143997570     -0.38301369085171
  C   -2.12181143880127     -1.22207240384289      0.09961545910752
  N   -2.30397088287717     -2.52269808749536      0.50056654765982
  H   -3.24966553688665     -2.78249747633439      0.71696820155195
  H   -1.60478450968398     -2.93702643370108      1.09551880133669
  C   -0.82599884997890     -0.64650974301898      0.07379689590217
  C   0.33602860257065     -1.48489732607536      0.08375246465322
  N   0.25720003715850     -2.88016890104670      0.07841679594737
  H   -0.46852331471342     -3.25591232244371     -0.51375891878333
  H   1.14443533115833     -3.29266746928105     -0.16174202139456
  H   -4.12465106043063     -1.30642331600701     -0.59744662102482
  H   -4.54619089227338      0.91706360751507     -1.06187368764854
  N   -1.31031155673764      2.98737040461573      0.74410620798142
  H   -0.54401756268140      3.02779558137852      1.38874657179363
  H   -2.05592591777978      3.65187407900658      0.85761701348075
  H   0.81052598098352      2.39711538602312     -0.15493395899510
  H   3.22487293975475     -2.48896466797362      0.17585197394622
  H   4.83822774050561      1.73006756481712     -0.46043688738774
  H   3.45827845084059      2.56276815711594     -0.85070010038240
