30
Coordinates from ORCA-job ./opt_b97-3c_parallel
  N   -4.87663032383970      0.02210397092284      0.07785059109704
  C   -3.50951620415754      0.00806259150909      0.03044838829728
  C   -2.86696875622171      1.19014244562435     -0.36454989420171
  C   -1.52085108667647      1.49441751967541     -0.29929939258820
  C   -0.38063141717531      0.74360709208400     -0.01772737707830
  C   0.84742895251575      1.43650146157816      0.10080973348572
  N   0.87217617490328      2.82813021472811      0.14390950431489
  H   0.23095700284455      3.24204252337182      0.80014482063919
  H   1.79737367415678      3.20170835194810      0.26950043022602
  C   2.04534142239467      0.72249241811239      0.08262683214558
  C   2.04147956682356     -0.72209632023429     -0.09174687183899
  C   3.38086831317630     -1.14001917878217     -0.16096601443144
  C   4.18899272055832     -0.00307018875191     -0.02150348630278
  C   3.38774621552631      1.13606699967778      0.13092275126827
  H   3.75879619144492      2.14469203314558      0.23499911011764
  H   5.26925255878285     -0.00512864912376     -0.03008265380964
  H   3.74697156735548     -2.14986208320674     -0.27075653903755
  C   0.84039430818575     -1.43235598071365     -0.08948189766154
  N   0.86097653556389     -2.82440922665862     -0.13060529015824
  H   1.78330266265493     -3.20027325390661     -0.26971734827326
  H   0.20915674076213     -3.23759659434192     -0.77676293408926
  C   -0.38257196873893     -0.73587375409590      0.04641282619811
  C   -1.52235258436287     -1.48272843274081      0.34503362109715
  C   -2.86626147177011     -1.17606448383287      0.42225583070844
  H   -3.51411587413468     -1.97837274017556      0.75651380654370
  H   -1.30879383830197     -2.51503998861375      0.59918235331504
  H   -1.30752125057515      2.52638242269000     -0.55495361530987
  H   -3.51617772395026      1.99962087875321     -0.67875505954403
  H   -5.36241325479977     -0.85624614448900      0.10048519197833
  H   -5.36199813494502      0.76146442964673     -0.39728217180758
