31
Coordinates from ORCA-job ./opt_b97-3c_parallel
  N   -5.95058338789254     -0.54907635716702      0.10031803583768
  C   -4.80196158972076     -0.36791857644301      0.03688225815240
  C   -3.41069419877940     -0.15455254709908     -0.02458476853222
  C   -2.60530489896369     -1.31690817733305     -0.05261185305595
  N   -3.24100786625489     -2.52630650690198     -0.10665503469472
  H   -4.22470857636935     -2.58368355061885      0.09050925092877
  H   -2.70933406239472     -3.34964500279197      0.10655010308718
  C   -1.20647995389859     -1.37505230660895     -0.06124253186128
  C   -0.20453826142403     -0.41792221336674     -0.04287431758993
  N   1.03753583938831     -0.95380482129272     -0.03330176266836
  C   2.07530884560213     -0.14170434049484     -0.02701323682309
  C   1.97146151038828      1.33990639801993     -0.03520159712173
  C   3.25766696995695      1.86820246217936     -0.02842356955575
  C   4.15753123223894      0.78226370430400     -0.01510194305721
  N   5.49297829973991      0.84854234562622     -0.00304954989313
  H   6.04416837715527      0.00808410924112     -0.00311241932138
  H   5.97381478034350      1.72778761111919     -0.01657720352121
  C   3.43785995623024     -0.46571371049916     -0.01312827921232
  C   4.05683966386491     -1.71246398839994     -0.00141090808535
  N   4.65764136451727     -2.71159847970823      0.00932096907104
  H   3.53339089951186      2.91064053941616     -0.03135508789375
  C   0.70454942832723      1.87837398391646     -0.04441240246471
  C   -0.42557298672328      1.04639554414095     -0.04610666160079
  C   -1.67184310861140      1.66689371481353     -0.05716649329556
  C   -2.98433597922213      1.19861762017701     -0.04454226325166
  N   -3.96517316028923      2.16097619591475     -0.10127798136026
  H   -4.90722795512686      1.90386042182555      0.13884330340280
  H   -3.71011546428105      3.09144529691436      0.17517244038482
  H   -1.60725745797106      2.75019483784449     -0.08115371743835
  H   0.56228613834385      2.95213923346009     -0.05040401065187
  H   -0.79314933138574     -2.37617599678757     -0.07960745911405
