23
Coordinates from ORCA-job ./opt_b97-3c_parallel
  N   3.17971056187340      2.16923334298825     -0.66381904012959
  C   2.44371926624718      1.15315360437713     -0.16066156038087
  N   3.08335983851011      0.00001876246031      0.00286940898976
  C   2.44353230171602     -1.15316940190350      0.16549455600495
  N   3.17891126382100     -2.16921906706016      0.66960727491509
  H   2.81746893338855     -3.10104122862723      0.58236904437976
  H   4.16981334592001     -2.04082617594945      0.76174919941427
  N   1.19712263735802     -1.50707214174114     -0.19503066642311
  C   0.13855369030767     -0.72442594134539     -0.24531087301129
  C   -1.07319543154110     -1.30409437805054     -0.65169939138233
  C   -2.24805192294837     -0.65303137886775     -0.36060553243520
  N   -3.52815276425110     -1.02295757874714     -0.55953811347042
  C   -4.21660529038963      0.00002888536229     -0.00241806343736
  N   -3.52899304523585      1.02299112549825      0.55571077079970
  C   -2.24857610439448      0.65303188820528      0.35872135998315
  C   -1.07416763138103      1.30408377955111      0.65159076245163
  C   0.13818580645247      0.72440662731252      0.24693440193057
  N   1.19681395622248      1.50704704874364      0.19822136723745
  H   -1.06166283122663      2.30819058166963      1.04958011402870
  H   -5.29832271940800      0.00005009831559     -0.00324411759903
  H   -1.06009756552852     -2.30820214398756     -1.04967315082226
  H   2.81810342427645      3.10104922223175     -0.57721031353181
  H   4.17071219761137      2.04083501386411     -0.75487863321176
