25
Coordinates from ORCA-job ./opt_b97-3c_parallel
  N   -5.09639151479245     -0.12145213352441      0.47795166754223
  C   -3.94518488678510     -0.08494159214855      0.30665764622995
  C   -2.55696925434158     -0.01503794511348      0.09105952954022
  C   -1.86171275588904     -1.24700495217302     -0.14395034140924
  N   -0.58109644644737     -1.49674996337712      0.01665962433432
  C   0.48183782812935     -0.71266162917978      0.10793235166976
  N   1.60438323937367     -1.33314164680553      0.48975257344394
  C   2.72601821581419     -0.63695051847527      0.38032410734492
  N   3.95090489810697     -1.05047072473240      0.67213663314556
  C   4.75965982082666     -0.01058723842107      0.26409543135871
  C   4.10829637330764      1.08406514054197     -0.29322949884686
  C   2.75138108738930      0.74993413662533     -0.22416941079570
  N   1.65377297445280      1.40852094094502     -0.50982157084686
  C   0.49031057069067      0.74075700213041     -0.26038640383626
  C   -0.62355050698547      1.54180866328759     -0.24338017347198
  C   -1.98182002984167      1.26422321572736      0.03816798389214
  N   -2.77959853852431      2.34762193639546      0.19540571617269
  H   -2.37433356869494      3.25830709463680      0.29766700787663
  H   -3.74768262485570      2.24722544478093      0.44432981145674
  H   -0.39224325969349      2.58394419068328     -0.43149477950130
  H   4.54708314859134      1.99383425250349     -0.66509445670239
  H   5.82869417310560     -0.10645689860815      0.39836427538142
  N   -2.60187382441759     -2.32642143095811     -0.49061853971079
  H   -2.15616943610153     -3.22350659550573     -0.41558630632034
  H   -3.60494981291798     -2.29322063403471     -0.51215591094757
