27
Coordinates from ORCA-job ./opt_b97-3c_parallel
  N   -1.96270932371645     -3.25890550611465      0.01301474712786
  C   -1.78038360666879     -2.11071626615973     -0.00318939558948
  C   -1.81004606397252     -0.68979357905312     -0.01839859235718
  C   -3.11546059033959     -0.12758855174860     -0.05394878595469
  N   -4.17810653262161     -0.97655765956987     -0.15286541458829
  H   -4.04248351644648     -1.96082391928791      0.00257102150193
  H   -5.09438439637765     -0.62042030198080      0.04432394091274
  C   -3.39024258795645      1.24141921551178     -0.02497217457401
  C   -2.51462039205677      2.31108850800415      0.01598864674383
  N   -1.19700322433132      2.39892575686428      0.01648132065097
  C   -0.29462530866031      1.41115187330234      0.00471719706896
  C   1.03543246429215      1.84209371050672     -0.00530642246596
  C   2.07612317339981      0.93795232547661      0.00916916397990
  C   1.72079997537494     -0.51317464671971      0.04415092806557
  N   0.46166214108229     -0.95206768175359      0.04231798419422
  C   -0.53937337918531     -0.07267348510866      0.01489865847860
  C   2.88943207054881     -1.24005658817113      0.07068071747134
  C   3.95884972933025     -0.29356786377267      0.05050814627306
  N   5.25908449088836     -0.62257625551609      0.07460802483546
  H   5.97290306874544      0.07922042121817      0.01553380388507
  H   5.55097257522121     -1.58163740220222      0.05729122985312
  C   3.45674934618181      1.03535718037250      0.01318888851149
  H   4.05218481150728      1.93418311126447     -0.00357683178385
  H   2.98372786909547     -2.31287091012032      0.09947028939208
  H   1.19976060353858      2.91062398830916     -0.01356739871235
  H   -3.00084875125448      3.28330250141499      0.04242174643179
  H   -4.44005987591861      1.51219830143406     -0.04441002775221
