31
Coordinates from ORCA-job ./opt_b97-3c_parallel
  N   -4.47556511792346     -2.08209975073401     -0.46405965225915
  C   -3.61383427180169     -1.31338229102355     -0.29237370271500
  C   -2.58461856695510     -0.38051119020733     -0.07482650568173
  C   -3.02723863720587      0.94125656376248      0.25236394260560
  C   -2.25146980832325      2.09464569477319      0.23350464649385
  C   -0.90138998833884      2.22472089196897     -0.02689433178559
  C   0.12221845669256      1.28981394759691     -0.14868470418866
  C   1.42403437472052      1.83468606208222     -0.27698076529798
  C   2.55093937779449      1.06397819828480     -0.19899353945964
  C   2.40547513596213     -0.36862562636325      0.06865912265080
  C   3.69948010380120     -0.89801671215905      0.21188919779547
  N   4.02960143689868     -2.23044280556707      0.42305881079902
  H   3.37071412712265     -2.73133221141182      0.99808057028124
  H   4.96478986663663     -2.36571366219790      0.77237352700504
  C   4.61757329653442      0.16073421885906      0.00466548715980
  C   3.93272253348577      1.34800894226078     -0.23952889912197
  H   4.37952356818974      2.31532109141430     -0.40638365973557
  H   5.69268838609100      0.05305592547406      0.03889839495048
  C   1.14498505162429     -0.92763669047453      0.10732492285041
  C   -0.02036948245355     -0.16468558176417     -0.04916705305028
  C   -1.25792465708080     -0.86714668716008     -0.21176306885175
  N   -1.15938919808602     -2.19705959254151     -0.49410037914988
  H   -0.34546959409402     -2.51566087974631     -0.98436270980384
  H   -1.99863330611921     -2.72227760488029     -0.66992147151284
  H   1.05638806648282     -1.98855450703738      0.30111572894270
  H   1.51187070767035      2.90848530784767     -0.39203539594198
  H   -0.56565561571107      3.25376102319709     -0.08757883738110
  H   -2.78667303121186      3.01836700979774      0.41845460103644
  N   -4.34521506926053      1.08568919100203      0.56035867427444
  H   -4.74220810430417      2.00684893941119      0.54579852879459
  H   -4.98668440813778      0.32887701463584      0.39803011109710
