26
Coordinates from ORCA-job ./opt_b97-3c_parallel
  N   1.84762729329432      3.19974566400715      0.05901913115525
  C   1.64451719775109      2.05670725290115      0.01819394628327
  C   1.53988671316890      0.63797979592619     -0.01829376937580
  C   2.81606115435797      0.01202409602122     -0.04896154756435
  C   3.04743315935634     -1.36912433437974     -0.03245533663415
  C   2.15353551876252     -2.41071355207148      0.00240818228970
  C   0.76669471266891     -2.38281872652634      0.01336327555169
  C   -0.14194432536015     -1.33033700718637     -0.00171601315849
  C   -1.49719997307343     -1.70404039807426      0.00784319907189
  C   -2.50728138799505     -0.77059450540973      0.00267358554430
  C   -2.15080826873695      0.66002556212151     -0.00960561835412
  N   -3.24810211043727      1.43821225072588     -0.01397805948360
  C   -4.28473560028346      0.55677968393710     -0.00384172295105
  C   -3.90457577196676     -0.79161788538795      0.00637573611725
  H   -4.55448772767490     -1.65094832082408      0.01461851602657
  H   -5.29954617307556      0.93119013912892     -0.00435234114800
  C   -0.82824119681562      1.05170624667765     -0.01792875742174
  C   0.21670661202359      0.11992333107007     -0.01544713109350
  H   -0.61794751046136      2.11082113817946     -0.03094333441931
  H   -1.72877238367016     -2.76173768367615      0.01866337499426
  H   0.30377413399707     -3.36240617185227      0.03393062608384
  H   2.59566208383733     -3.39861096840750      0.01746315050220
  H   4.09322395164509     -1.65430428926004     -0.05894796315775
  N   3.93809432559637      0.80337552762306     -0.14822512719377
  H   3.85720675068835      1.78505127143192      0.05473030583709
  H   4.80844988150280      0.39516126400465      0.14026571929832
