29
Coordinates from ORCA-job ./opt_b97-3c_parallel
  N   -4.75375234894413     -2.16645083812069      1.02790047921013
  C   -3.96944096092189     -1.36135537672136      0.71941893059705
  C   -3.12288004508525     -0.32353643680567      0.33888173752690
  C   -1.73604250718471     -0.29705727705984      0.17504040725732
  C   -1.36455459135321      1.08116080829377     -0.27211673830134
  N   -0.09252012737542      1.43226248004325     -0.39388198910487
  C   0.82913916930265      0.48455528339658     -0.16317733252237
  C   2.13480305942951      0.97165298564595      0.00781674327524
  C   2.26568159227478      2.38383453301500     -0.01828578924733
  N   2.53981280065850      3.51356957321344     -0.00741866871132
  C   3.35597092942107      0.25794425024519      0.23090397267889
  N   4.44593441231920      0.99123806679440      0.58643770143866
  H   5.35404464514319      0.57054350527757      0.52549996592047
  H   4.41754197890320      1.99299396287162      0.50299358154232
  C   3.52132459827944     -1.11143437797342      0.09119820487094
  C   2.55131521783272     -2.06633773797978     -0.23127564203831
  N   1.22887733437228     -1.99015407432617     -0.11350818118988
  C   0.43799436083283     -0.94761567210750      0.02082226573333
  N   -0.84948250575942     -1.26340665708166      0.27830123432272
  N   2.97523082139289     -3.28990603273940     -0.65773110201090
  H   2.30371350424308     -4.03569520537192     -0.60550475276034
  H   3.94545494837646     -3.53873041817471     -0.60648787396846
  H   4.53414538179042     -1.48025657302327      0.20714866525838
  C   -2.51843090837747      1.82459911292341     -0.42280945770344
  C   -3.59594712974454      0.98526487772933     -0.04377741586702
  N   -4.88369470887343      1.31813180840304     -0.02615449903962
  H   -5.57915976696549      0.64972601392404      0.26019934193320
  H   -5.19317679937823      2.22945575111328     -0.30898061968309
  H   -2.59030793300921      2.85619279999293     -0.72440138612074
