35
Coordinates from ORCA-job ./opt_b97-3c_parallel
  N   1.83399801400553      3.90654064188241     -1.25897519979632
  C   1.86289751050093      2.84062742408531     -0.79481977449415
  C   2.05521152045664      1.50166390510824     -0.38715260505095
  C   3.39166023514616      1.01115621691765     -0.62555857207921
  N   3.96584121685392      0.00201682465046     -0.00155299049233
  C   3.39271439091044     -1.00773272970268      0.62243793394787
  N   4.18300720748109     -1.68890005659067      1.46701209120652
  H   5.15714988334750     -1.44796259377657      1.50167466032127
  H   3.88535586337773     -2.55387952159113      1.88297938152162
  C   2.05679613728294     -1.49966240641208      0.38399544548280
  C   1.86590075464527     -2.83884089092082      0.79162413941605
  N   1.83813107086101     -3.90480251662082      1.25573713423576
  C   0.96359969130317     -0.73526438951425     -0.04261737898012
  C   -0.25757898517564     -1.37192542221630     -0.40493188048578
  C   -0.25756868146478     -2.69291176879052     -0.90388564551934
  N   -0.27057216865226     -3.74120733135330     -1.40317728632386
  C   -1.46275777212785     -0.68774382358800     -0.26832823366884
  C   -1.46347643485555      0.68601493790758      0.26523223708834
  C   -0.25902390848677      1.37148284238838      0.40179064974272
  C   -0.26040943523228      2.69248161819560      0.90071014769467
  N   -0.27451884311130      3.74077744288663      1.39997158829360
  C   0.96282578128471      0.73611382179166      0.03946904395301
  C   -2.79138876339404      1.08080350714158      0.44850770992537
  C   -3.34584388290337      2.27662170495670      0.91025478311051
  N   -3.94114762894603      3.20716506323427      1.27614507895962
  C   -3.61521438928702     -0.00200678464677     -0.00150995466267
  C   -2.79025618018147     -1.08394198330867     -0.45155802195533
  C   -3.34345502651599     -2.28035473897971     -0.91327160959305
  N   -3.93778465489937     -3.21155169905526     -1.27908363112472
  N   -4.93634498991907     -0.00271126532462     -0.00148354422513
  H   -5.45067724776412     -0.79965388167999     -0.33948191935029
  H   -5.45151291904116      0.79367937635818      0.33654285348512
  N   4.18125036493493      1.69316726855876     -1.47010919932074
  H   5.15565158518518      1.45327332821818     -1.50473927171676
  H   3.88268748136973      2.55783057280541     -1.88608071333510
