28
Coordinates from ORCA-job ./opt_b97-3c_parallel
  N   3.53135867056707      2.83955286266468     -0.00108482724804
  C   2.99045351157862      1.81131153629834     -0.00097313231078
  C   2.45238429362291      0.49549323479789     -0.00056295376782
  C   3.48237276262283     -0.52721070196005      0.00334852685839
  C   3.23583272820817     -1.88580749861794     -0.00080792915366
  C   2.00997222405756     -2.56256095477394     -0.00698059760801
  N   0.77809691237959     -2.14540157279961     -0.00719655782924
  C   0.29262529853699     -0.88667903244723     -0.00333116456035
  C   -1.11082281011897     -0.82658764493171     -0.00095803642727
  C   -1.83173400454383     -2.04695145215404     -0.00074967643948
  N   -2.47395563781001     -3.01275869126890     -0.00041555849567
  C   -1.80172406198758      0.39726779502764      0.00019830857374
  C   -1.02603283103801      1.63617656954837     -0.00299142552178
  C   -1.94557617603593      2.74101418320499     -0.00270066447447
  C   -3.20095262450217      2.22111927269449      0.00063578315619
  C   -3.14062409846731      0.75986828104967      0.00250625474116
  C   -4.28196665687520     -0.04746721583922      0.00618654471914
  N   -5.27706258621750     -0.65045601870037      0.00939936584486
  H   -4.12828655459959      2.77155098744664      0.00185062921382
  H   -1.67204404602094      3.78279246794477     -0.00454935581586
  C   0.33031160525385      1.60967424340353     -0.00523983260536
  C   1.06150330118461      0.38143287059621     -0.00343064880512
  H   0.87277347660801      2.54356295743734     -0.00702265628485
  H   2.09960103472167     -3.64603512149040     -0.01154700970703
  H   4.10964532249813     -2.52727643185782      0.00075820514429
  N   4.77019977379127     -0.10668306330662      0.01183029849394
  H   5.01987291652789      0.86517833383934      0.00716894329846
  H   5.51655998035783     -0.77501325410554      0.00814862691039
