26
Coordinates from ORCA-job ./opt_b97-3c_parallel
  N   -4.60731026964995     -2.13530233247481     -0.00499208820984
  C   -3.77637358379278     -1.31804024877303     -0.00415220241355
  C   -2.82666502279183     -0.29883616031654     -0.00337789841197
  C   -1.43194621206178     -0.39595684747528     -0.00229520489667
  C   -0.89257583641846      0.98353466710239     -0.00186492741776
  N   0.41497152068573      1.24828334022121     -0.00084044564649
  C   1.27467101547933      0.23521728679000     -0.00017641930316
  C   2.64106134538183      0.62681903409713      0.00091524724744
  C   2.87906341253911      2.03202805682176      0.00112124549757
  N   3.19085796223671      3.14966117480635      0.00137982167169
  C   3.81844827711444     -0.13817644264582      0.00185641170805
  N   4.03184842505395     -1.44331925371199      0.00203181714264
  C   3.08357715474241     -2.37211245755390      0.00126195642771
  C   1.69861578123313     -2.27759228225511      0.00013879789459
  C   0.83732768530436     -1.17917751524643     -0.00053745877961
  C   -0.54127365988969     -1.43932697828357     -0.00162164983540
  H   -0.88607466648561     -2.46510985387452     -0.00189977812224
  H   1.19691185811709     -3.23930324910778     -0.00026962861721
  H   3.47393790295926     -3.38500911526127      0.00158108391264
  H   4.72957201748620      0.44999659042540      0.00258730383163
  C   -1.95016025760118      1.87189313788097     -0.00266942972782
  C   -3.14251875240541      1.10506556303999     -0.00358913854857
  N   -4.38806463859770      1.57947890584360     -0.00452112517035
  H   -4.57222841705264      2.56538336499062     -0.00464413908382
  H   -5.17570627148524      0.95451165552012     -0.00513046101122
  H   -1.88164252170126      2.94674666984061     -0.00260174323824
