25
Coordinates from ORCA-job ./opt_b97-3c_parallel
  N   -3.91058860939229     -1.71649889902601      0.12715148414924
  C   -2.95111088505249     -0.71143346505692      0.04845602234869
  C   -3.38397708711417      0.60735016504055      0.03291565702724
  C   -2.62298626361277      1.76928053931182      0.01951747752759
  C   -1.25444045336644      1.93004236855691      0.00622757134382
  C   -0.20150711654933      1.00133532513329      0.00734992107392
  C   1.09560967947697      1.51365155806300     -0.01591253140492
  C   2.20595096898405      0.68371438286675     -0.01329296932241
  C   2.01295066747211     -0.77572389736131      0.01674102082205
  N   3.20511900195801     -1.43117493195966      0.01563227680761
  C   4.12257305548789     -0.44657278802938     -0.01318147666567
  C   3.58531451583341      0.85901895558562     -0.03184156791830
  H   4.13559976754360      1.78560532910518     -0.05507137317237
  H   5.17570983032800     -0.69614151157468     -0.02002437964185
  C   0.75149287082605     -1.30358871523243      0.04036323613289
  C   -0.39468428721940     -0.47153236592606      0.03524841694005
  C   -1.60959941848526     -1.13502800149607      0.05914294135242
  H   -1.50198100475083     -2.21491882047457      0.09308825603665
  H   0.62680498404135     -2.37830890207978      0.06276191337602
  H   1.22075301155040      2.58953363945195     -0.03541670798330
  H   -0.92452864272002      2.96285516177641     -0.01000576049669
  H   -3.19471909494955      2.68876129779742      0.01018344487665
  H   -4.45925800848414      0.75239135211797      0.03756598646223
  H   -4.83242407496707     -1.46158542317425     -0.18408635961245
  H   -3.63287542083809     -2.61441078911576     -0.23124512755908
