31
Coordinates from ORCA-job ./opt_b97-3c_parallel
  N   -5.16991163926585     -0.00007830527496     -0.24950509466404
  C   -3.85299812231026     -0.00005644702389      0.02775260845880
  N   -3.34215498721494      1.23462624147554      0.16890320554500
  C   -2.03968340554919      1.50290427899303      0.18312810173281
  C   -0.88620766710088      0.74377689140912      0.04044853119342
  C   0.35428123805016      1.44674798256051     -0.00785656887023
  N   0.42697638833059      2.81423737408655     -0.16393024513229
  H   1.33761540466678      3.13522362896869     -0.46301384585359
  H   -0.31280337034519      3.23442573232431     -0.69867084904643
  C   1.53512118033915      0.72258351390643      0.12269086525557
  C   1.53515720085038     -0.72243423121811      0.12262175391931
  C   2.89109729838991     -1.08463907178692      0.04973550742784
  N   3.69629046495013      0.00013385022956      0.01059586259168
  C   2.89104341716608      1.08486285623082      0.04984169696468
  N   3.40545180816491      2.38369157775122     -0.00343656544428
  H   4.40953724945427      2.35169454349189     -0.11404117992609
  H   3.18566935610495      2.92332533424014      0.82333531769465
  N   3.40556998192365     -2.38343697182221     -0.00366993884945
  H   3.18581094837182     -2.92316343184404      0.82304743486019
  H   4.40965406203084     -2.35137945311425     -0.11426810040389
  C   0.35435312291665     -1.44664508649414     -0.00799252297568
  N   0.42711524396047     -2.81411659705638     -0.16419339698728
  H   1.33777011043544     -3.13503167988793     -0.46330517534676
  H   -0.31264364477382     -3.23429081268348     -0.69897396979258
  C   -0.88617046525825     -0.74374038254925      0.04038023775096
  C   -2.03960745960976     -1.50293868798861      0.18299634912639
  N   -3.34209244589442     -1.23472554553887      0.16879910537343
  H   -1.86889076475006     -2.56039000089240      0.36085534153654
  H   -1.86902151925752      2.56034868118248      0.36108060364808
  H   -5.66477162810770     -0.87241005442587     -0.25876665464683
  H   -5.66481591106956      0.87222908905125     -0.25869396473812
