24
Coordinates from ORCA-job ./opt_b97-3c_parallel
  N   4.55691925228599      0.00016233182829      0.02507255929114
  C   3.21338571260661      0.00013076658357      0.02065651423264
  N   2.68869650492933     -1.24164032554238      0.01896089871830
  C   1.39975900313156     -1.51619274143749      0.01484066057773
  C   0.24046613945118     -0.73080802570598      0.01114897841954
  C   -0.98448108795207     -1.41355101313047      0.00727749361717
  C   -2.18482070358732     -0.73621004838833      0.00346350913121
  C   -2.18485496973115      0.73621657873664      0.00340540239728
  C   -3.52455207775052      1.15070514283605     -0.00081018182655
  C   -4.32606348409770     -0.00004639261842     -0.00327269408915
  C   -3.52449863809615     -1.15076076815437     -0.00071640250381
  H   -3.87526843470112     -2.17093803947415     -0.00177129145239
  H   -5.40626427588078     -0.00007193142511     -0.00664703012738
  H   -3.87536820554982      2.17086643537986     -0.00194747045479
  C   -0.98454730602562      1.41361412779648      0.00716492383276
  C   0.24043190083819      0.73092880768963      0.01109088232855
  C   1.39968763547377      1.51636829115537      0.01471619242910
  N   2.68863811577600      1.24187682118318      0.01885579519179
  H   1.20586578880773      2.58738284032429      0.01396293565151
  H   -0.97251532429731      2.49739835486958      0.00713435701653
  H   -0.97239859569246     -2.49733467995474      0.00733536271273
  H   1.20598768951285     -2.58721650155507      0.01417348098057
  H   5.04942325197420      0.87390975866893      0.02644190096034
  H   5.04946406557424     -0.87356205736538      0.02651474566526
