25
Coordinates from ORCA-job ./opt_b97-3c_parallel
  N   -3.59603799979302     -2.20726973180815     -0.52872233504607
  C   -2.82336989883431     -1.15678857422437     -0.15279044816733
  N   -3.42618214342520      0.01220391398897     -0.15608291471170
  C   -2.79241937751472      1.17099975184738      0.11355759541747
  N   -3.62821170229610      2.15864634785131      0.53410498920694
  H   -4.61313661033555      2.01448750504962      0.40607801262158
  H   -3.27789810798612      3.09808655114962      0.48087921309110
  N   -1.53508180135892      1.54145658066064     -0.04122660892743
  C   -0.43576806787380      0.79307000574346     -0.10331623216749
  N   0.67494312932806      1.42247230972304     -0.47762427668253
  C   1.81745702827552      0.74647232908151     -0.31464980105786
  C   3.12278238270174      1.08496076041879     -0.54620072669941
  C   3.87572832060430     -0.02310769269357     -0.01762071572426
  N   5.20675453894426     -0.11529602330990     -0.01466948015763
  H   5.78722700819375      0.60013891056511     -0.40848760138647
  H   5.63570180296950     -0.93203325724574      0.38326694643419
  N   3.13552429806993     -1.02181539080690      0.51098308802693
  C   1.86647280225760     -0.60726200183385      0.33239028385390
  N   0.78105973664800     -1.27805313654802      0.61492582116667
  C   -0.39194766045018     -0.65257021947958      0.29622345021092
  C   -1.48661441352639     -1.47228170876794      0.22977875554694
  H   -1.26735700052050     -2.51618307564244      0.41968417794940
  H   3.51258867844839      1.98906006629511     -0.98363791349303
  H   -4.58103841929912     -2.05113756229722     -0.64099429105540
  H   -3.27067651082681     -3.14973806351730     -0.43304102684900
