28
Coordinates from ORCA-job ./opt_b97-3c_parallel
  N   -1.11694058848564     -3.68250847624839      0.32088645587196
  C   -1.13244644068798     -2.52498264871210      0.18772193537704
  C   -1.23006773076275     -1.12764564088305      0.04071536024096
  C   -2.54363927777541     -0.64750642584754      0.00116600772887
  N   -2.99340400014474      0.61849681472059     -0.17721500831290
  C   -2.30441413757319      1.71791993101469     -0.09332654622182
  N   -3.02495573471261      2.87193742793677     -0.24492771665758
  H   -3.95865028944980      2.75585317313590     -0.60005378120416
  H   -2.55082382056218      3.71330881766509     -0.51827967714976
  C   -0.91036049364682      1.92409696466342      0.18714035765217
  C   0.12670452154023      1.03875197648958      0.16348599085686
  C   1.43556360580420      1.64110216209720      0.31459189089743
  C   2.56110264720621      0.91979336948794      0.14283718433478
  C   2.46159563300332     -0.51124614759994     -0.16480435503173
  C   3.74171269754920     -0.98371249694625     -0.30233599170730
  C   4.65915264238344      0.12095767075339     -0.08464625140787
  C   3.96741030943549      1.26349257076864      0.18084753944767
  H   4.37130087290335      2.24220956355222      0.38217926529484
  H   5.73472615603556      0.03343405028285     -0.12985573432589
  H   4.03217159767497     -1.99801515472788     -0.52804408515554
  C   1.19431684212512     -1.11553068717442     -0.23462894237251
  C   0.02976758944724     -0.40755267580751     -0.05361291159311
  H   1.14117665520068     -2.18222251661469     -0.40431830320759
  H   1.47725359784196      2.70478127418881      0.51421201918600
  H   -0.64425529499148      2.95711639670310      0.37805316931768
  N   -3.58445621943448     -1.52883551124897      0.06603662152264
  H   -3.42881456717474     -2.47170994387780      0.37525102680320
  H   -4.48777762604918     -1.12680782037166      0.23455486881566
