27
Coordinates from ORCA-job ./opt_b97-3c_parallel
  N   -2.83624107737171     -3.00243861299939      0.00031962052162
  C   -2.36731467423259     -1.93898462265909     -0.00040824480117
  C   -1.92289928691109     -0.58884175457656     -0.00065593643681
  C   -3.02578835190402      0.36280091743411      0.00031266892501
  C   -2.87936595564905      1.73097257349628     -0.00090421773918
  C   -1.70122920476053      2.49813363424161     -0.00285608385259
  N   -0.44560729097057      2.17551162003913     -0.00294786802490
  C   0.12839106993768      0.94609992646821     -0.00156381848000
  C   1.52455002551559      0.97703777018249     -0.00077247227648
  C   2.19191953701664      2.22644454229663     -0.00080851647890
  N   2.84545341108648      3.18572475612050     -0.00065027839633
  C   2.30733828617205     -0.19712231021975     -0.00020273689028
  C   1.62286770398292     -1.49154952464209     -0.00102255710062
  C   2.63589211874532     -2.51779005848866     -0.00075412600062
  C   3.84268543301598     -1.88124302268441      0.00018821992063
  C   3.65448779278264     -0.44159066751471      0.00052232110558
  H   4.43992978611306      0.29664660679939      0.00115146700267
  H   4.80811546915453     -2.36465670020287      0.00061967106616
  H   2.45369710746492     -3.57952127440997     -0.00115157890655
  C   0.27109278210465     -1.55602684418731     -0.00185254255093
  C   -0.54695042685050     -0.37384659026801     -0.00145553263935
  H   -0.21290080667857     -2.52184927747731     -0.00238927106563
  H   -1.87348047288604      3.57214527322511     -0.00430005564510
  H   -3.79723453925241      2.30786620495678     -0.00049481157171
  N   -4.27954254326836     -0.15647235066029      0.00213689129672
  H   -5.07386421165285      0.45371784425642      0.00310537050650
  H   -4.45383184650422     -1.14429122802625      0.00331666581226
