25
Coordinates from ORCA-job ./opt_b97-3c_parallel
  N   -5.21911781413873     -0.09442810192217      0.06004027235429
  C   -3.88644729974454     -0.01889637619387      0.06465486308386
  N   -3.16128592528802     -0.97520312277051      0.68538536305443
  C   -1.88178901629975     -0.59269628497206      0.48616862911769
  C   -1.80748289682539      0.69144781381733     -0.28194082695280
  C   -3.10927959793841      1.02227115280616     -0.55407611099536
  H   -3.47656376313637      1.88288720447461     -1.08727733069111
  N   -0.66641224196839      1.34755741272646     -0.53931580700904
  C   0.46098727764119      0.76377885731001     -0.16380058853717
  N   1.53676844036505      1.53956395432722     -0.07784575406204
  C   2.79063227798516      1.16192042453927      0.14880018985900
  N   3.59251871793467      2.14196559891824      0.63704580984243
  H   4.58471928795046      2.00002968895772      0.58941206684877
  H   3.24225358967341      3.08150951035477      0.59334620746407
  N   3.42209845117679      0.00726427629710     -0.10967891051974
  C   2.76102193613632     -1.13099417627089     -0.23079775420484
  N   3.44274519276146     -2.15883106187871     -0.79163703288166
  H   4.42926687698261     -2.04225218788746     -0.93480500847987
  H   3.08480487896063     -3.08549012715131     -0.65145188597392
  N   1.53239597317112     -1.47734471257208      0.20849930147234
  C   0.48684975086187     -0.68627092715906      0.29714926960257
  C   -0.71736030313505     -1.25132422407042      0.76721791217918
  H   -0.70248910023543     -2.25104247156341      1.17754890066362
  H   -5.78685063311450      0.60230263703472     -0.38257161639263
  H   -5.66401737577626     -0.85921049075227      0.53600077835752
