32
Coordinates from ORCA-job ./opt_b97-3c_parallel
  N   -6.15992513332539     -0.64184145820805     -0.00016537560809
  C   -4.99995842660645     -0.54805932018385     -0.00027277611542
  C   -3.59318629069076     -0.45466839336291     -0.00040709623471
  C   -2.90723996949993     -1.69011315619021     -0.00195439190028
  C   -1.51653364559855     -1.88527406030994     -0.00222522750258
  C   -0.44327113365581     -1.02150194528747     -0.00152939700897
  N   0.75847796392390     -1.66865241417356     -0.00209456654446
  C   1.83741752655443     -0.92788188226481     -0.00210043114559
  C   1.76912572386312      0.55154196843730     -0.00164974303588
  N   0.61496809275735      1.19021462278812     -0.00086665776872
  C   -0.50866885238464      0.45059746431282     -0.00065593926399
  C   -1.68510797912529      1.22736710617478      0.00097847166715
  C   -1.45817256392474      2.63037340593548      0.00240382243412
  N   -1.46488719571076      3.79233359512543      0.00370256072647
  C   -3.06332294876147      0.86389928764465      0.00124022779035
  N   -3.95687963460788      1.87297125994344      0.00314368815778
  H   -3.64952791694877      2.83007525952832      0.00387443569871
  H   -4.94500040610238      1.69675034112074      0.00311912851290
  C   3.07146713983653      1.04662504948255     -0.00208902591746
  C   3.53502848331180      2.36189943497453     -0.00197961895643
  N   4.01351691521386      3.42314826205547     -0.00198392132154
  C   3.94918755978038     -0.09813388552758     -0.00268082660621
  N   5.27112381119588     -0.02006271564165     -0.00317955662581
  H   5.73368260377634      0.87334099586162     -0.00316805261588
  H   5.83616369171576     -0.85225298925907     -0.00357863767576
  C   3.19303258870272     -1.30419004114587     -0.00266104342105
  C   3.75825302033259     -2.57891704673793     -0.00322887736193
  N   4.29677580527978     -3.61121381410957     -0.00372436841480
  H   -1.19743004692554     -2.92025901886358     -0.00311796500276
  N   -3.64660179460978     -2.82421852681857     -0.00328920718808
  H   -3.19903131316710     -3.72042065421102     -0.00426175274237
  H   -4.65044634099922     -2.80685739588960     -0.00298570090868
