32
Coordinates from ORCA-job ./opt_b97-3c_parallel
  N   -5.49480813104328     -0.17733262369459      0.62452446793808
  C   -4.35176838818464     -0.08997976565141      0.42290051014629
  C   -2.96982855932271      0.02619958538543      0.16962212128231
  C   -2.45327770049381      1.34500063935309      0.20746460083062
  C   -1.11558586638478      1.72360370976059     -0.08830774169891
  C   -0.91443357207717      3.12395077804157     -0.20711479525391
  N   -0.93678970313226      4.28490885326292     -0.26504855537469
  C   0.06818396252009      0.95878627243458     -0.16388729320030
  N   1.15311738862263      1.70850351646463     -0.38610565729403
  C   2.35384713282950      1.15524096205579     -0.25819091196700
  C   2.55043215602049     -0.24092457046938      0.21110958249408
  N   3.82965116911625     -0.52794412813646      0.40375483521899
  C   4.48115062064551      0.62685924540397      0.03248379774257
  N   5.80678314174908      0.64937835701160      0.09106774660402
  H   6.33821111695826      1.45674530493025     -0.17700337830167
  H   6.29178519951052     -0.17416456518079      0.40470104606150
  C   3.61929148345313      1.68541275112443     -0.37772593353432
  H   3.89491967346073      2.68241449373460     -0.67433457233338
  C   1.42134893880259     -1.04489183384153      0.36206425577801
  C   1.57958563589878     -2.34681332252818      0.88886126032739
  N   1.74151517647113     -3.37259007464180      1.40714661774218
  C   0.15058783283433     -0.50416171440171      0.02903044053132
  C   -0.90858751832952     -1.38384757037549     -0.27379207589405
  C   -0.56076999364953     -2.68398424708280     -0.71604624856455
  N   -0.40766542386556     -3.73782182891020     -1.18301294797494
  C   -2.32096340979171     -1.16941632865324     -0.22085769404425
  N   -3.10810913272397     -2.22476920535943     -0.50617959554629
  H   -2.71427591799789     -3.13607694034266     -0.66262089945790
  H   -4.10830610598764     -2.15263585640622     -0.45542137367082
  N   -3.31557796058008      2.33409539499688      0.51807916147390
  H   -3.01783816591076      3.29366219246217      0.48545895099832
  H   -4.29950666361820      2.15469797725385      0.60794909814146
