24
Coordinates from ORCA-job ./opt_b97-3c_parallel
  N   2.90078893276531      2.96125460647663     -0.06890180769149
  C   2.37393455719698      1.93238237909005      0.05070730235485
  C   1.89905910210015      0.60200004871792      0.14584749965052
  C   2.88019887399470     -0.42056008333924     -0.05822644737205
  N   2.79538381668136     -1.68246503502673      0.37651476575655
  C   1.69016299201367     -2.31576699882816      0.68019583244537
  N   0.42776303934723     -2.06255016868579      0.35101988039632
  C   -0.13159140961448     -0.90231734317482      0.11063704015551
  C   -1.50175546210708     -0.91593457478280     -0.30127902543180
  C   -2.12639029366408     -2.14627124854676     -0.61222997614949
  N   -2.64162949478373     -3.14721065951438     -0.88856464290814
  C   -2.20145267796079      0.27149509070905     -0.25047679259085
  C   -1.49947375298164      1.49559276411819      0.25937797948539
  N   -0.18814790237562      1.55348970705881      0.48820380659768
  C   0.51136035732517      0.43738144676998      0.32700595137935
  C   -2.49151196538292      2.45058766554574      0.35847265370294
  C   -3.66390856199776      1.80353408800034     -0.09698307207034
  N   -3.50519955941524      0.50954728290889     -0.46267505086641
  H   -4.64307721334897      2.25681037253030     -0.17311833306662
  H   -2.39024696952206      3.47096909779087      0.68455394948570
  H   1.83329754782311     -3.26626439887521      1.18258631609075
  N   4.05061499101322     -0.09598063627400     -0.62920968076084
  H   4.27292700245776      0.85169148440518     -0.87823284321299
  H   4.78975151294263     -0.77547106267107     -0.60271997487876
