28
Coordinates from ORCA-job ./opt_b97-3c_parallel
  N   -2.27118287937556     -2.82938062228133      0.93872483147886
  C   -2.02473155426154     -1.77488393246978      0.51353966124852
  C   -1.89678943378368     -0.42359538554675      0.11120958239491
  C   -3.15466774404514      0.25218647327870      0.03460167234362
  N   -3.41081577186957      1.48898669413721     -0.41269517846282
  C   -2.53906258127212      2.46595328747148     -0.50586333933236
  C   -1.19030199621512      2.53884831238261     -0.17053814914703
  C   -0.26260493036957      1.52785939360819      0.05513029621310
  N   0.98425508829021      1.97342254085686      0.30453592321382
  C   1.98517148996007      1.10954753694485      0.27028403600499
  C   1.80419498212107     -0.32149830150630     -0.12460357432984
  C   3.03750142134941     -0.90374464366149     -0.19416304072234
  C   3.99028955698282      0.10758634862087      0.18798873777651
  N   5.30762610935720     -0.10697115404598      0.25500750297266
  H   5.94090433136370      0.61802719740863      0.53758672752379
  H   5.69919774257590     -1.00376197914987      0.03372488363098
  C   3.33956373569835      1.33092047229877      0.46895712808842
  H   3.80528066796158      2.26210627328457      0.74355462610831
  H   3.26915333667205     -1.92457642700382     -0.45104774573601
  C   0.49263854126515     -0.79003615932745     -0.30459126239800
  C   0.34844710179771     -2.12591565263497     -0.74369658499397
  N   0.35764315554572     -3.20170044365886     -1.18203554855721
  C   -0.58812663015685      0.08471643744517     -0.09202592182204
  H   -0.75656493085003      3.52993922476587     -0.16609272768132
  H   -2.97362162980413      3.39401733079419     -0.86673455846167
  N   -4.27406868051523     -0.41374270621559      0.39959700373525
  H   -4.26529979383712     -1.39620093697135      0.60645461478136
  H   -5.14823986118549      0.02812307967536      0.18177487402941
