28
Coordinates from ORCA-job ./opt_b97-3c_parallel
  N   -4.60898893667450     -1.60120069595392     -0.03174161589555
  C   -3.69527075197275     -0.87896910873706     -0.02069068071413
  C   -2.69357004536072      0.09086616698941     -0.00744815172678
  C   -2.95591720147843      1.51706641191790      0.00064892477789
  N   -4.17295714833349      2.05338086835794     -0.00364319149839
  H   -4.99408085407338      1.47529674394351     -0.01107241969381
  H   -4.27201140762618      3.05239175919002      0.00436256574196
  N   -1.84735702701480      2.27492670720290      0.01286325120554
  C   -0.82503341858694      1.39579254038973      0.01400348489157
  N   0.44326102343961      1.72825796081014      0.02504724367415
  C   1.37748136219183      0.74010739823960      0.02471098114507
  C   2.67100909597653      1.25674477729977      0.03988142754491
  C   3.94838783494096      0.68384656341330      0.03743346604958
  N   5.01155829940235      1.55138571556692      0.09961001462863
  H   5.91742687053032      1.20781108931302     -0.16389297274745
  H   4.85001102146587      2.51270311930446     -0.14158906428186
  C   4.22949203003521     -0.68606783737680      0.02596082613868
  C   3.33086248046251     -1.73056406510290      0.01219289476428
  C   1.94636021095858     -1.73020867261205      0.00542248968492
  C   1.02022802818605     -0.68512052580349      0.00987586267116
  C   -0.36386442815411     -1.01947369245746     -0.00113984526726
  C   -0.77421567541755     -2.37193892174047     -0.01738220157492
  N   -1.09979097435914     -3.48666411237639     -0.03091766758530
  C   -1.30864039645555     -0.00137784289984      0.00138380146376
  H   1.50647552347119     -2.71902048976197     -0.00628485380745
  H   3.77844846636464     -2.71658854314810      0.00298644441502
  H   5.27854283226381     -0.95948510327341      0.03339334941221
  H   2.65104784191809      2.34003434790524      0.05650464538354
