24
Coordinates from ORCA-job ./opt_b97-3c_parallel
  N   2.03090328342057      3.25018564751815      0.27584391092510
  C   1.81971393282340      2.10741841125564      0.26164621725888
  C   1.77368152526776      0.69218348846666      0.19308798679364
  C   3.03348233819470      0.05106640205954     -0.08616938765397
  N   3.35134999721362     -1.21969054035342      0.12649292748786
  C   2.49701074412472     -2.19993141953390      0.37969911879185
  N   1.20156543362491     -2.32317710693540      0.20224491100299
  C   0.28620125220331     -1.36169322947123      0.03671839793003
  C   -1.00021295501026     -1.77557246474044     -0.30442291378047
  C   -2.02559714249321     -0.85390356458055     -0.23591600775879
  N   -3.33934441703871     -0.96712224015752     -0.41289127948006
  C   -3.77990844860686      0.27908772832156     -0.04025278010913
  N   -5.07207092521064      0.57432861152349     -0.07420462143353
  H   -5.38326556346861      1.48713926120342      0.20390170366514
  H   -5.73406583943384     -0.11634030706939     -0.37766677970638
  N   -2.86032577947528      1.19909121426187      0.36885563120849
  C   -1.71967310683739      0.52298841454879      0.24923506180711
  N   -0.49687462653401      0.96589092908507      0.48683354207364
  C   0.50835774330300      0.10060114918492      0.29251170028591
  H   -1.17229145613342     -2.82207534065655     -0.50858927568698
  H   2.98157116292557     -3.11355405872107      0.71125947394402
  N   4.04075611507837      0.81706523719722     -0.54147861760631
  H   4.95296640666654      0.40012543446495     -0.58830000960938
  H   3.95676712269574      1.81549214562817     -0.61415066194964
