26
Coordinates from ORCA-job ./opt_b97-3c_parallel
  N   -2.89544076452939     -2.97929908825868     -0.00009775955090
  C   -2.40879873877357     -1.92383563700025     -0.00000417022420
  C   -1.93621114723093     -0.58576149632196      0.00024464947618
  C   -3.00432399178599      0.36599531567589      0.00070180303024
  N   -2.93956847885103      1.70428160157440      0.00036382369471
  C   -1.85763672677345      2.43929221314479      0.00020495460867
  C   -0.49684774724742      2.11651554233376      0.00050554461000
  C   0.15989899376813      0.90051271036845      0.00054457776799
  C   1.58614258250053      0.93947376474385      0.00079219263707
  C   2.26885791133050      2.17946368219750      0.00120785649267
  N   2.80495627123558      3.20867331752798      0.00126111724729
  C   2.32606045726950     -0.23455067557739      0.00050408279272
  C   1.62722976448227     -1.53918071969310     -0.00010977379093
  C   2.64922993067673     -2.48463276000141     -0.00030549259311
  C   3.83543282722102     -1.73582485513096      0.00016652470418
  N   3.65505655748449     -0.38527709724687      0.00065535654630
  H   4.84034595235619     -2.13493269750841      0.00017373816663
  H   2.55654077271602     -3.55748042515374     -0.00072246577467
  C   0.24982520625649     -1.58658962863176     -0.00028912226441
  C   -0.52665102275996     -0.42256588125445      0.00011824986259
  H   -0.24176571216373     -2.54837394559605     -0.00064648944191
  H   0.14392072504986      2.98827103223319      0.00061352809268
  H   -2.06565269488495      3.50480708646896     -0.00013381927017
  N   -4.27977663949726     -0.08545445669749      0.00143702729205
  H   -5.00758655268402      0.60455472260731      0.00117845332609
  H   -4.52122971316559     -1.05870237640358      0.00133759576225
