29
Coordinates from ORCA-job ./opt_b97-3c_parallel
  N   -4.51310053397248     -2.69959872134634     -0.83142603300662
  C   -3.79238198447786     -1.81861837431236     -0.58239434177000
  C   -2.98243311178612     -0.72820815376210     -0.27537591418069
  C   -1.58831752441561     -0.64184512240131     -0.19317060151592
  C   -1.32021921441230      0.75053330381889      0.19652485221666
  N   -2.44199023544293      1.45578363775874      0.35935435964924
  C   -3.44608491663800      0.58769142114921      0.06957053094692
  N   -4.71407516581504      0.97625362807861      0.12026674023172
  H   -5.46363551148080      0.34331863474154     -0.09471996445021
  H   -4.92721963431912      1.92385802725307      0.37771277071779
  C   -0.00295981288478      1.19620492571702      0.34232761179358
  C   0.19827157862021      2.51430433994317      0.81267480739620
  N   0.31195325646125      3.56721085264583      1.28749159493722
  C   1.06985153517916      0.31056898587256      0.06605628594156
  C   0.76647413222444     -1.15024856975831     -0.03921139420805
  N   1.61939477685201     -2.15709180039207      0.13850009069467
  C   2.92918154524042     -2.19777229086324      0.26638209457209
  N   3.42496523022194     -3.35824705948679      0.76518049029564
  H   4.40880258987418     -3.54956170427187      0.75512225754349
  H   2.79366415434541     -4.13260863714170      0.86738560483275
  C   3.85356322137982     -1.20236314824437     -0.14152072159085
  C   3.56204623951755      0.09904414785483     -0.40109315106528
  C   2.34166836320301      0.80583831448384     -0.26693548896289
  C   2.48638689962473      2.17147126060546     -0.63948317528022
  N   2.71148069402527      3.23413636805191     -1.04945335877867
  H   4.39164574644233      0.70859255745850     -0.73205456697952
  H   4.88575322527192     -1.50746718583939     -0.26337285328733
  C   -0.55814320093335     -1.54922820309910     -0.26382597711724
  H   -0.74332291500293     -2.60662494091603     -0.38192400797416
