28
Coordinates from ORCA-job ./opt_b97-3c_parallel
  N   -0.92499131211474     -3.51404635700277      0.89192825529933
  C   -1.10429306546669     -2.42281098081654      0.52994244719303
  C   -1.50083889353118     -1.10886906815551      0.19988139580220
  C   -2.91572292143756     -0.93294879550904      0.16634262197864
  N   -3.60218303852348      0.12521086912216     -0.28257377223900
  C   -3.19490189612040      1.36776824296162     -0.33688340289317
  N   -4.06894943124149      2.25611437421379     -0.86192136245321
  H   -3.77758731628495      3.18460341167837     -1.10329517752136
  H   -4.90939948719648      1.90061877137128     -1.28232238689400
  C   -1.98007650097766      1.92084797899266      0.17833059990562
  C   -0.77047807936930      1.30674615254607      0.32804811749350
  N   0.22765642557522      2.19764361492967      0.68092807814637
  C   1.44922126267177      1.80205462964139      0.54391118612684
  N   2.55925272838478      2.59216435006881      0.80031737854825
  C   3.57681924711233      1.85362561354494      0.43498448068232
  C   3.22007036463690      0.53694947431209     -0.08745282702900
  C   4.13980158611918     -0.41519992164854     -0.53652744518431
  N   4.95431388999094     -1.16334299474121     -0.89611291292637
  C   1.84384830599651      0.48463613671178      0.00521092239255
  C   0.83663960627547     -0.46063351440829     -0.23537340326719
  C   1.17727799449225     -1.71034799621909     -0.80156866073483
  N   1.48524162139832     -2.68610609266683     -1.34961304767164
  C   -0.49820587997278     -0.11169874821738      0.04833753394438
  H   4.59372793578861      2.21127298033058      0.52127537411953
  H   -1.97120836387537      2.98234432717150      0.38717465851978
  N   -3.70527890306481     -1.95920680036710      0.53661054009070
  H   -4.68855966814015     -1.87810583346840      0.35462718725843
  H   -3.32592109392514     -2.86194174217642      0.76244762321295
