27
Coordinates from ORCA-job ./opt_b97-3c_parallel
  N   -1.56491213075798     -3.67520573597451     -0.14852501693429
  C   -1.52191126387832     -2.51355085088188     -0.09685224442468
  C   -1.56119199383347     -1.10182017048831     -0.02646956315510
  C   -2.88470608094989     -0.57753308615348      0.10075247281029
  N   -3.31331698472500      0.67637333694959      0.00800951733219
  C   -2.58050206984810      1.77210920924558     -0.06999925925307
  N   -3.30378260871059      2.90560307976457     -0.28469022733243
  H   -2.88145740713264      3.80717147764306     -0.16773246812035
  H   -4.30055207372295      2.84099357351815     -0.18327492822050
  C   -1.18539838517167      1.94629040136481      0.05585487081432
  C   -0.14757094804135      1.03985320895521      0.09098824092417
  N   1.06598484124056      1.64169801957434      0.20856398678237
  C   2.13073436047481      0.87839829184746      0.12192296989952
  N   3.41475784133393      1.25626326950832      0.20353819770156
  C   4.06480144296246      0.07987623686682      0.02431747060127
  N   5.39276373074134      0.01304985444172      0.03370132649340
  H   5.93408899797861      0.84457719459220      0.18039900566481
  H   5.84657038981649     -0.87183688610415     -0.09740775488520
  N   3.31996227990978     -1.06198546539843     -0.17023134412421
  C   2.07922246351529     -0.58583393401505     -0.10899013278312
  C   0.84926796370038     -1.20535366815271     -0.18809688600573
  C   -0.30757599919357     -0.43507345320888     -0.05661057876973
  H   0.78950831944222     -2.27651360619772     -0.31261525110067
  H   -0.83909130217420      2.97045019417629      0.10653882200517
  N   -3.89415100247833     -1.45736671143777      0.32702137538496
  H   -4.82609970264665     -1.10401243910633      0.21205512571036
  H   -3.75031190135115     -2.44808615752886      0.25101993968470
