30
Coordinates from ORCA-job ./opt_b97-3c_parallel
  N   5.91698344018354      0.46140304098402      0.01047807753459
  C   4.76120807659077      0.31117799768878      0.00006205289058
  C   3.36782339684681      0.13346878997351     -0.00868145600799
  C   2.56662265229554      1.28408930367436      0.17650377119806
  N   1.24928567397359      1.41832705985363      0.01377135265071
  C   0.29988284355968      0.50530643012577     -0.07124880166192
  C   -1.00066473814190      1.00950580628495     -0.24296930641363
  C   -2.09767762667058      0.19489517847277     -0.11788578797177
  C   -1.92520047517895     -1.24754486059245      0.18610210474079
  C   -3.18070580094833     -1.82001631452146      0.29726951939813
  C   -4.13848535812095     -0.79547624022663      0.07713714372900
  N   -5.46436434436620     -0.93583710465491      0.09822029787950
  H   -6.06385653063006     -0.14583200339912     -0.06861842174382
  H   -5.89513640545591     -1.82348884753928      0.27692747536585
  C   -3.47787252855074      0.45135801496567     -0.17842677217095
  C   -4.14291572772395      1.64770518985193     -0.42610184987243
  N   -4.75676790197298      2.61925416224605     -0.62712496513018
  H   -3.40649955712577     -2.85259771806540      0.50872801538507
  C   -0.64396410826894     -1.77814768322096      0.26202374073778
  C   0.48423342008334     -0.99002810761464      0.07231972053369
  N   1.64045029485229     -1.64332684249462     -0.04490857123295
  C   2.87257195436128     -1.19063740803988     -0.19316278272034
  N   3.77007320346438     -2.15494079867510     -0.53336153464162
  H   3.44994974582004     -3.10227413864394     -0.44491928864552
  H   4.75836151194476     -1.98709340016160     -0.47122260704428
  H   -0.49013674447606     -2.84061957565527      0.38718853781267
  H   -1.10543206135812      2.07552473047377     -0.38513466407076
  N   3.17341750071231      2.44754473626846      0.51800093156227
  H   4.17363214217137      2.53720827044480      0.51672704507381
  H   2.61899990592978      3.28068038299681      0.44132447973568
