28
Coordinates from ORCA-job ./opt_b97-3c_parallel
  N   -3.76693289038017     -3.22681096427430      0.01638408459919
  C   -3.15356773823003     -2.23581915231464      0.00995374309143
  C   -2.46351452947826     -1.02520362812269      0.00228668545664
  C   -1.07956882089758     -0.80991233638660     -0.00358578209942
  C   -0.84698982196531      0.64708992547048     -0.01004959692627
  N   0.34539030039091      1.19926900555496     -0.01696855202529
  C   1.43041492760675      0.38268211961470     -0.01681945836798
  C   2.63122108496400      1.06930714312827     -0.03157009687155
  C   3.97468199284604      0.63309735312062     -0.02509674781474
  N   4.47455085688602     -0.60335686207635     -0.00675895223294
  C   3.75989035003384     -1.71727628764121     -0.00422303968181
  C   2.39491245294519     -1.96063633773110     -0.00515684635620
  C   1.30246229471157     -1.08889084831822     -0.00872108352945
  C   0.01512545581096     -1.63959372605865     -0.00290584889357
  H   -0.10373439800771     -2.71522059197854      0.00248202474826
  H   2.13707679557564     -3.01350375094081      0.00153194885803
  H   4.37735253512699     -2.61056070086664      0.00530140430215
  N   4.92580744147423      1.60635293870922     -0.06973240454163
  H   5.87568798796414      1.31741184575533      0.08098410648652
  H   4.69299377565900      2.56202348174078      0.12436026281237
  H   2.48541812669168      2.14257421866725     -0.05017111493462
  C   -2.10473098168908      1.28464281898852     -0.00703718761211
  C   -2.39747921149004      2.64836626526145     -0.00924653133196
  N   -2.72131331100402      3.76679579306296     -0.00984376282433
  C   -3.09431898994023      0.26315749082426      0.00024916648661
  N   -4.40839222441010      0.46488028228473      0.00471467891788
  H   -4.78430105257099      1.39705181297620      0.00265003413214
  H   -5.04925965052341     -0.30894520474998      0.00953656955267
