29
Coordinates from ORCA-job ./opt_b97-3c_parallel
  N   -5.38354325483916     -0.84272118778399     -0.33264417820837
  C   -4.23457584256687     -0.66963283936433     -0.24594574495077
  C   -2.84950225649338     -0.46005722270842     -0.12747834000374
  C   -2.05585092057107     -1.59527652901737      0.16602741651176
  N   -0.75672625691792     -1.75791169286780     -0.04990082815041
  C   0.23296344689715     -0.90584469178681     -0.16060482117820
  N   1.39956166961104     -1.48505308021742     -0.52081824308446
  C   2.50581989479803     -0.80467876572185     -0.33157146692323
  N   3.74476205914054     -1.24829517395850     -0.60840382307285
  C   4.55289913592446     -0.25838133702184     -0.17067586680022
  N   5.87318791716592     -0.37727889877776     -0.29492444955637
  H   6.24891149778785     -1.20904005016697     -0.71603154475317
  H   6.50240020780435      0.33346696043439      0.02733414986436
  C   3.86584662880636      0.87185312300891      0.40481272228775
  C   2.53902854941420      0.55276524684470      0.29596507700749
  C   1.32585955416230      1.20028917927664      0.50278161992921
  C   0.14675162560000      0.55153764548040      0.17516818523692
  C   -1.05676404725638      1.30228229427087      0.03916871441640
  C   -0.91380892927408      2.70617578902413      0.11611233286007
  N   -0.85041355039961      3.86702727330208      0.16852946284830
  C   -2.38325840935104      0.87608573636143     -0.22415145311633
  N   -3.29915423147982      1.81851082141097     -0.55096814163005
  H   -3.06295130627144      2.79305401256878     -0.48999555488016
  H   -4.27672064230216      1.58822405324783     -0.55985461507582
  H   1.30611441176292      2.23484849504631      0.81539682577368
  H   4.31677087753873      1.77067336406841      0.79290824104100
  N   -2.66458466325221     -2.71013691399819      0.62933704253742
  H   -3.66353005514596     -2.76375329448493      0.71695498092882
  H   -2.14119377339270     -3.56591355926988      0.58088695834100
