30
Coordinates from ORCA-job ./opt_b97-3c_parallel
  N   -5.24250630905276     -1.46550084251304     -0.81249200846776
  C   -4.16204389262061     -1.15065605151052     -0.51064949504637
  C   -2.86808949920163     -0.74555100505124     -0.14092573206080
  C   -1.95149464918115     -1.78011150348571      0.31519633361451
  N   -0.65958931453716     -1.75168780350654      0.35448532938134
  C   0.21937575027641     -0.73657220314357      0.13862167627540
  C   1.53221306207645     -1.11558395006377     -0.06676636288509
  C   2.56843643103286     -0.18362537821060     -0.10403826280532
  C   2.28777413070663      1.22130993186740      0.15534571234354
  C   3.54982568591757      1.94471878930270      0.12758894051969
  C   4.52733420585645      1.04707390389912     -0.12874214104983
  C   3.94119719235309     -0.29338973919188     -0.27777459913819
  C   4.65617595939094     -1.46250448573417     -0.53749153174839
  N   5.25313233886963     -2.43918319902382     -0.75425488436952
  H   5.58315008222873      1.24652411151332     -0.21708398604480
  H   3.66452788842039      3.00478358794243      0.28160474640820
  C   1.01700818152147      1.62885516017153      0.36016967516131
  C   -0.08302443318225      0.69644768912045      0.25290643877643
  C   -1.35512568105057      1.25124095036290      0.20034739324213
  C   -1.47281184580949      2.65212016572626      0.40042167025282
  N   -1.65336170489604      3.79050108056690      0.54956415091190
  C   -2.61746205841561      0.62061835060704     -0.16896264992882
  N   -3.60072277872655      1.45837950662275     -0.55395715794311
  H   -4.52153194476434      1.10738695727209     -0.75097897723580
  H   -3.47736578619528      2.45433984217696     -0.53962652574406
  H   0.80173309618526      2.67323558593851      0.53200193728664
  H   1.74035939784465     -2.17299790714217     -0.14342040425540
  N   -2.53346144686039     -2.94284488020250      0.72459519978898
  H   -3.49678977889798     -3.13702259205440      0.51855132787987
  H   -1.91692408248868     -3.73112784805644      0.81389727938047
