31
Coordinates from ORCA-job ./opt_b97-3c_parallel
  N   4.82514115541897      2.56324075681687      0.71719695191839
  C   4.05900037057956      1.71164146373260      0.50669780652819
  C   3.21287422416276      0.63692922915438      0.24446474914167
  C   1.81126876012098      0.57975221136577      0.15821900065384
  N   0.90419435766188      1.52227136328053      0.22865621857649
  C   -0.40306262937628      1.17305749279004      0.06651301420406
  C   -1.22892223763886      2.27871966776140     -0.01524448291086
  C   -2.60724472611470      2.41381415917012     -0.24628526798782
  C   -3.55234523129806      1.40040369594874     -0.22012718170843
  C   -3.39455488746024      0.04908555909677      0.08263209289422
  N   -4.54586236281345     -0.66561717401884      0.21914209434595
  H   -4.50815766082084     -1.62107614757306      0.52964256402784
  H   -5.40092994261041     -0.17714428763107      0.40633519654409
  C   -2.16088192289475     -0.66586430371746      0.19366544741548
  C   -2.33768979772923     -1.99463270587340      0.65212188571778
  N   -2.62120005906050     -3.01539916787337      1.13221078113364
  C   -0.83575951303977     -0.23276978086803     -0.05140147996703
  C   0.17353425038850     -1.20185119369195     -0.29879801125038
  C   -0.11058158694981     -2.50821996872474     -0.75906514556627
  N   -0.28691218090448     -3.55579644209878     -1.22658573051399
  C   1.51087898312574     -0.82740513597635     -0.17111469392880
  N   2.61008226008088     -1.56012237960704     -0.31609060842860
  C   3.63727383819743     -0.69512909007544     -0.05270022161529
  N   4.89202435043207     -1.12440776048512     -0.09014597895840
  H   5.66024476808834     -0.50639491388226      0.10167617777629
  H   5.07442452729445     -2.08570721645388     -0.31846145528653
  H   -4.57797228589851      1.71228667397251     -0.38335520862187
  N   -3.05477830363894      3.69837877828988     -0.43389625352988
  H   -3.97132816863982      3.82983305931553     -0.82224715950733
  H   -2.38464318877472      4.38916416091662     -0.72031487256254
  H   -0.67029649168771      3.20334091403857      0.05737938696590
