27
Coordinates from ORCA-job ./opt_b97-3c_parallel
  N   -5.31287417221107     -0.09918730936276     -0.24598582923731
  C   -4.15572211475172     -0.02987598386860     -0.12893593878640
  C   -2.76109261250721      0.06607270714533      0.00676193243573
  C   -2.01484479276144     -1.13849199822948      0.27612030715694
  N   -0.72474414157549     -1.32685732259749      0.17773360827803
  C   0.28146692972712     -0.45381648667275      0.03245968054381
  C   0.15980789380178      1.01417206519934      0.26657760670170
  N   -0.92994405080097      1.72134109805613      0.18588210647708
  C   -2.18711869008400      1.33269207065152     -0.14481275291960
  N   -2.93038867846633      2.36441101759777     -0.58810176070902
  H   -3.90480052540484      2.26005071111924     -0.80823902259357
  H   -2.54443709352337      3.28714657323590     -0.50724797402409
  C   1.34458079182600      1.78963543494696      0.54196780881696
  C   2.55775252133050      1.24826827456250      0.31409916340240
  N   3.80415881830182      1.87257285971931      0.40891709941451
  C   4.65341671624557      0.93713768266497      0.05576940571984
  C   4.03988184345833     -0.33604833650271     -0.29207939823577
  C   2.69911937468745     -0.14419738367910     -0.12913997388264
  C   1.54859985026797     -0.96979736034271     -0.22968538879580
  C   1.70153401326132     -2.34635785005827     -0.50337900351757
  N   1.88860960113853     -3.46794148950737     -0.73986215087098
  H   4.54856690230153     -1.23385512597981     -0.60241652229083
  H   5.71685701877513      1.13858460692697      0.03852240501822
  H   1.21780752796728      2.82822985931834      0.80910660051719
  N   -2.72671124608923     -2.23395309837318      0.63457968343955
  H   -3.72834609436469     -2.25391932333499      0.56886166901009
  H   -2.23415317514991     -3.10966936003506      0.62539572403149
