27
Coordinates from ORCA-job ./opt_b97-3c_parallel
  N   -3.76404268413110     -3.21455945308389     -0.00375418675452
  C   -3.19117383286425     -2.20068596341579     -0.00303963664727
  C   -2.58922026125154     -0.94450097288711     -0.00232676001056
  C   -1.23725492836935     -0.58645686594406     -0.00151330878023
  C   -1.23833110657949      0.89151977681453     -0.00101614419781
  N   -2.47422998913368      1.39703299024359     -0.00138776892771
  C   -3.29052153481615      0.31091855478173     -0.00217895614445
  N   -4.60990541300674      0.45511286403181     -0.00275837791228
  H   -5.22135412267265     -0.34163623107406     -0.00333222880102
  H   -5.00219992837683      1.38012160437485     -0.00255679734083
  C   -0.01270374208210      1.54180653861842     -0.00057919045242
  C   0.05774001871501      2.95516671809665     -0.00058231719371
  N   0.06218685344883      4.11477178445275     -0.00071341098471
  C   1.18213477496485      0.76893943143866     -0.00048891828468
  N   2.29915498771528      1.48638508334240     -0.00078250241400
  C   3.56042241031744      1.08222684641192     -0.00035952353049
  C   4.14400264967115     -0.16667963823883      0.00133197150649
  C   3.50357918156444     -1.41433874168910      0.00230481751317
  N   4.27883660923137     -2.52911293153397      0.00419651358708
  H   5.27849805924071     -2.46858292836973      0.00481440651176
  H   3.87269506578257     -3.44499036435380      0.00465389181026
  C   2.11566999437141     -1.60394670059300      0.00122220780695
  C   1.04742080619760     -0.71421180006345     -0.00032027925245
  N   -0.15270913446101     -1.33608411181852     -0.00109199907012
  H   1.77718378005430     -2.63341143365478      0.00163223455219
  H   5.22817096688956     -0.17378842869663      0.00184372733346
  H   4.26329174178034      1.91081673740940     -0.00123963292206
