28
Coordinates from ORCA-job ./opt_b97-3c_parallel
  N   -2.27254640181675     -2.79696232019671      1.03887362078787
  C   -2.03169291601406     -1.75506590383873      0.57990322012330
  C   -1.91294221065944     -0.42094739883990      0.12603024055617
  C   -3.16930129945906      0.23179556507147     -0.00978391173493
  N   -3.42636615133889      1.47547031769531     -0.45890802820731
  C   -2.56821370664954      2.46174516467420     -0.48640945316597
  C   -1.22563275792047      2.53935862010686     -0.10557080353852
  C   -0.29123387041740      1.53422155140004      0.09108774332764
  C   1.03566269385719      1.94931919060992      0.34391010275373
  C   2.07490962948512      1.06432428895983      0.26792184518608
  C   1.80856610778219     -0.33385845557749     -0.11346564405094
  C   3.03132866390226     -0.93276316356028     -0.21294926987381
  C   3.97317380957005      0.10883889660722      0.13124258849996
  N   5.29929101836692     -0.03622214449854      0.17815348528370
  H   5.86883603551805      0.74850675204206      0.44063816343128
  H   5.74177510023477     -0.91303703390971     -0.02040298245084
  N   3.40074068161108      1.29440499142154      0.41230080429936
  H   3.25476326533611     -1.95301762516718     -0.47707147689749
  C   0.47457655213109     -0.77868075087088     -0.28610491635716
  C   0.31100590192751     -2.11027143591900     -0.72933355132036
  N   0.29650794676779     -3.18543636190615     -1.16981109645872
  C   -0.59661213447327      0.09574826506396     -0.07491384144449
  H   1.23302476158796      2.99893240722676      0.51191382017846
  H   -0.83570670624398      3.54889195905009     -0.06110506633824
  H   -2.99887258408775      3.39705287523669     -0.83473498726718
  N   -4.29801623426892     -0.44412098935728      0.29912908745036
  H   -4.29013069328838     -1.42329414455903      0.52112324237867
  H   -5.16755154334094     -0.00315900466511      0.06297111084870
