26
Coordinates from ORCA-job ./opt_b97-3c_parallel
  N   4.33714795104166      2.30151253584079     -0.23199501687850
  C   3.55784605485524      1.43905524365851     -0.15307159775434
  C   2.70583623763585      0.34219653229191     -0.05566983190418
  C   1.31076486671306      0.26867997013328     -0.02008191688160
  C   1.00752264528105     -1.17231657542757      0.09130766024646
  N   2.12701288786809     -1.92130596204912      0.12767609304639
  C   3.13857513512178     -1.03109289610885      0.04129117177536
  N   4.41002391900299     -1.42560573110234      0.04711949919489
  H   5.16000414693681     -0.76107552838984     -0.01413076474526
  H   4.62108352112388     -2.40433192385655      0.12130742031390
  C   -0.30945157672927     -1.55649083295858      0.11926535002943
  C   -1.31983561763350     -0.58116409887791      0.05186854998508
  N   -2.55833694186868     -1.07504353429149      0.01889589895287
  C   -3.74399348940741     -0.48777878743130      0.00431357495000
  N   -4.79437644182018     -1.36799318370298     -0.04249899488004
  H   -4.54996518793151     -2.31623958877423     -0.26914210808656
  H   -5.68596098194143     -1.04942371379505     -0.37559009401953
  C   -4.06465608451993      0.88482113464703      0.09963524351859
  C   -3.18200646887335      1.93388162077104      0.09477337998427
  C   -1.79385529260649      1.92034931465432      0.02607641077831
  C   -0.89913291650866      0.85232176670194     -0.01249457705280
  N   0.39482152844814      1.22099762481421     -0.06416263128564
  H   -1.29994066020954      2.88280482758627      0.01065030079081
  H   -3.62819428485505      2.91909354999025      0.15328011760014
  H   -5.11789042479663      1.12961710144532      0.17074448489216
  H   -0.60010030782686     -2.59526626986909      0.16955987302975
