24
Coordinates from ORCA-job ./opt_b97-3c_parallel
  N   -1.94001822008396     -3.17091081358801      0.23666435078177
  C   -1.69833384868051     -2.03670540829838      0.16568122590053
  C   -1.51522151058225     -0.63145058457358      0.06338368410094
  C   -2.76630658422065      0.09115947467749     -0.08798594306599
  N   -2.99123706690947      1.38250279681664      0.05587408185708
  C   -2.08530487977099      2.34778779284227      0.17782672070391
  C   -0.71296519509306      2.33597421784539      0.09078994012188
  C   0.20320900015810      1.27186419432435     -0.01289009475574
  N   1.47194725120745      1.65463364470868     -0.11269523955308
  C   2.42299771131330      0.71243425930390     -0.09177616486078
  C   2.12982558585388     -0.72426446485419      0.09199639405098
  N   3.27885026201572     -1.46806748484566      0.11161202533591
  C   4.24483368797299     -0.56241093801608     -0.05782881035561
  C   3.79393803417672      0.78893177812078     -0.18918216152658
  H   4.39990794696875      1.66784425938025     -0.32953133700341
  H   5.27908133739214     -0.88040924442029     -0.08446090214709
  C   0.83855088947274     -1.13055573635955      0.18979224476670
  C   -0.20017902741510     -0.16265187640801      0.09216138318473
  H   0.60702956354059     -2.18066102656887      0.29427719859991
  H   -0.22959271628713      3.30318904255802      0.12539515830051
  H   -2.53237328613916      3.32404259449825      0.33303869455741
  N   -3.87191763769628     -0.63556006447349     -0.37861116995075
  H   -3.87705990627777     -1.63883324487166     -0.35799192716332
  H   -4.75007610141604     -0.15184540619825     -0.32372385517992
