26
Coordinates from ORCA-job ./opt_b97-3c_parallel
  N   -3.81779673913176     -2.82261208261895     -0.02537363857964
  C   -3.21397039469632     -1.82629627491931     -0.02029017399106
  C   -2.57172682803729     -0.59042639365175     -0.01316868261909
  C   -1.21516256537391     -0.26586699159294     -0.01642164665545
  C   -1.17208269516941      1.21731893859645     -0.00249107939263
  N   -2.40322311555298      1.75276990465111      0.00686711100755
  C   -3.23735232409257      0.68924106830816      0.00065368634918
  N   -4.55718626392384      0.85459797513934      0.00754722506662
  H   -5.17950674672668      0.06683565447817      0.00105705597449
  H   -4.93534675172758      1.78468591381726      0.01525589005993
  N   -0.03598653153323      1.87597217394221      0.00209243100868
  C   1.09820771346947      1.12864813914269     -0.00907380572205
  C   2.26893512101521      1.88500297789770      0.00247172716439
  C   3.60499253576540      1.50708978580394     -0.00418424174477
  C   4.17943130990900      0.25928163564249     -0.02463481014767
  C   3.53598062504520     -0.98947793486130     -0.04207964025669
  N   4.33806167795187     -2.10565203736104     -0.11242559421512
  H   3.92545680852106     -2.99019287663018      0.12495233075339
  H   5.29432140504507     -2.01260808400519      0.17980915375453
  C   2.15780233566532     -1.19936830848626     -0.04576013666265
  C   1.05397359653045     -0.34452110182810     -0.02816543546588
  N   -0.12784673291964     -1.00962556901658     -0.02958169167070
  H   1.84435855149435     -2.23731821471316     -0.06448312835451
  H   5.26331516647292      0.23369281613013     -0.03381885767851
  H   4.30635485226008      2.33234770146505      0.01003381320505
  H   2.07368969883972      2.94927910797012      0.01862892891258
