29
Coordinates from ORCA-job ./opt_b97-3c_parallel
  N   -4.57739708546652     -1.92807325793332     -0.60158931996124
  C   -3.76950520162690     -1.11473254117381     -0.39400259329393
  C   -2.91469904373532     -0.04699919124429     -0.12710529188874
  C   -3.38120436672974      1.28965166061823      0.17831205130891
  N   -2.39079629167142      2.17270901130417      0.40151551115484
  C   -1.25277171838284      1.46234869050994      0.25406639113992
  C   -1.52684516846532      0.04874570473109     -0.07922362430363
  C   -0.47027826429334     -0.84079600615348     -0.24544595446106
  C   -0.71246688496750     -2.20954749903397     -0.48221946944203
  N   -0.86122732070011     -3.34681720308037     -0.67228288286192
  C   0.87668999569877     -0.39146734501673     -0.07727217957735
  C   1.87509890305483     -1.32930650876132      0.03909761574878
  C   3.26612675755518     -1.15405419688400      0.25994864871648
  N   4.00766302724086     -0.07159232916748      0.09739276094085
  C   3.51380560323865      1.13414154733381     -0.19580363368170
  N   4.42953216928185      2.00766668115159     -0.68142712639212
  H   5.39847929216091      1.75069721200902     -0.64060944597873
  H   4.18629261165409      2.98089413154733     -0.69514996578921
  N   2.30353917779526      1.66843188732790     -0.01993150930010
  C   1.12733821950991      1.06914672885365      0.09288346188847
  C   0.03840103927138      1.92164963817326      0.33589730123054
  H   0.24075845752601      2.96965481889750      0.49590597536020
  N   3.94948007089698     -2.25498137016979      0.65956869670957
  H   3.51387489228596     -3.15735409514596      0.68153995216369
  H   4.95222658620779     -2.21170450738964      0.66181723036563
  H   1.54878946117618     -2.36173585417447      0.02164899772939
  N   -4.66134005554876      1.64185619771431      0.23847654344714
  H   -4.90291297854874      2.59217975184823      0.45471982743152
  H   -5.39094665081816      0.97198031970858      0.07102246609584
