22
Coordinates from ORCA-job ./opt_b97-3c_parallel
  N   -3.76353490598031     -2.43388556501233      0.82776189826561
  C   -3.05507164752308     -1.55382154305509      0.54823454925094
  C   -2.30496493081312     -0.43080655437884      0.20323321717587
  C   -0.93917126058716     -0.25885804391646      0.05024644103608
  C   -0.77348571496448      1.17544128965065     -0.32825033893985
  N   -1.95899342292759      1.80328916827509     -0.43812002484760
  C   -2.87460527156847      0.86729504217654     -0.12315086499039
  N   -4.17224228818138      1.13398998664485     -0.11729675432144
  H   -4.84772571021548      0.42845435364617      0.11949236233041
  H   -4.48823853654000      2.05655345869501     -0.36093871651468
  C   0.49605352009499      1.69779783844562     -0.36989227482815
  C   1.55325911088915      0.83069879748825     -0.05919783996203
  N   2.69885793653130      1.34282670778456      0.35835024774391
  C   3.81544702380469      0.68367220837170      0.64382310866741
  N   4.29461739736680     -0.43627316939073      0.13490724260487
  C   3.51898927569635     -1.30462438299965     -0.51580125970769
  N   2.22514178126451     -1.52047464522209     -0.43869864743021
  C   1.27593787060517     -0.66163592210989     -0.06308529435056
  N   0.05642146036718     -1.14169798298613      0.11988318632406
  H   4.05906668074356     -2.02459617997515     -1.12267388177786
  H   4.48885286900048      1.21726216500113      1.30717185833876
  H   0.68019726243769      2.75824340966634     -0.46171218946691
