30
Coordinates from ORCA-job ./opt_b97-3c_parallel
  N   -4.40107968018237     -2.57347543816080     -0.10731534462304
  C   -3.73833308829835     -1.61401731534115     -0.06728589190314
  C   -2.99467665147109     -0.43973338837640     -0.02193093182427
  C   -1.60345910343523     -0.26065209819230     -0.01210670857161
  C   -1.41107726960827      1.19165450379659      0.03187391229827
  N   -2.59267430553755      1.85632969761379      0.04634930681088
  C   -3.53296617437942      0.89568222342184      0.01531308653368
  N   -4.83872822304290      1.19322060964960      0.04339127955903
  H   -5.52635687570283      0.47761108548052     -0.10460305134532
  H   -5.11478721010922      2.15400899045315     -0.04485135108001
  C   -0.13998516518512      1.70676483430711      0.04817457435742
  C   0.99549373676685      0.86800881423658      0.02679506217544
  C   2.22629075349428      1.50852045347677      0.04461461852299
  C   3.54926016492024      1.04426770602714      0.02524381693020
  N   4.53412435527687      2.02303875193773      0.10310846947779
  H   5.44140105638130      1.75993497340722     -0.24180798081561
  H   4.26398533711833      2.93753846765159     -0.21612296213607
  C   3.97413431961574     -0.27607025895496     -0.00319707874995
  C   3.21321476819399     -1.44436443144331     -0.01981430416599
  N   3.91862159968268     -2.64113470064217     -0.10066458861751
  H   4.85258926864676     -2.62364495596779      0.27209474223278
  H   3.41579084321139     -3.46029799927918      0.19516842018137
  C   1.82209025082103     -1.54485236235843     -0.03128327459809
  C   0.79714521368144     -0.59976815717337     -0.01529407381747
  C   -0.51494787373316     -1.10193352807300     -0.03340361441346
  H   -0.66082396606770     -2.17388227516188     -0.06519170651201
  H   1.45882475984608     -2.56706262472276     -0.06302395313339
  H   5.04978786799161     -0.42104237309974     -0.01325257174804
  H   2.14702918622616      2.58998808171238      0.08546123323047
  H   -0.00413503752153      2.77929733357523      0.08001982694470
