29
Coordinates from ORCA-job ./opt_b97-3c_parallel
  N   -1.58853226481785     -3.40527843844683      0.63726526668868
  C   -1.53967263703032     -2.27537858657135      0.36270413753188
  C   -1.62003828814029     -0.88295791264419      0.14474043026308
  C   -2.92552278308556     -0.32796393511392      0.37248395150447
  N   -3.35992366487890      0.86724157973136     -0.00140665990662
  C   -2.57034268453456      1.87141022143105     -0.35970647739384
  N   -1.31602006768019      2.14548411173284      0.01984214406628
  C   -0.34136056589932      1.29054535939719      0.21526133994707
  N   0.80735987006251      1.82695429304595      0.67592469874151
  C   1.92138024519989      1.14516919814163      0.49217294458126
  C   1.97077759095254     -0.15681587483057     -0.26176558743444
  C   3.27692762764773     -0.50314977537087     -0.41919996706052
  C   4.05914336470404      0.51426323496921      0.25925932077029
  N   5.39262461295978      0.47760067522749      0.32256607068489
  H   5.91133429416323      1.18071672835825      0.81602016568019
  H   5.91206571383726     -0.26507482926096     -0.10764458991964
  C   3.22831411095516      1.50221034917803      0.81354188934940
  H   3.53821752528878      2.39754520065260      1.32455136476700
  H   3.67281973613237     -1.38645255346765     -0.89375668996682
  C   0.74712517458330     -0.79549872755995     -0.53835559289245
  C   0.78214684386338     -2.05633918454468     -1.17086472176361
  N   0.90475458936595     -3.04930603986054     -1.76205593646384
  C   -0.43847615604031     -0.16476792298554     -0.13252228901086
  N   -3.14869268313433      2.83410797717884     -1.11309993548896
  H   -2.68644149492384      3.72335590204936     -1.16784041698413
  H   -4.14428144060351      2.80225704337162     -1.23666425873369
  N   -3.85828687119699     -1.10591568940447      0.96161566766330
  H   -3.68999858431681     -2.08184313226204      1.12959828495929
  H   -4.80745972823186     -0.78131256544297      0.93628385012106
