26
Coordinates from ORCA-job ./opt_b97-3c_parallel
  N   -1.74161661389657     -3.07864406905416     -0.99996170418716
  C   -1.70413068715129     -2.00786867629366     -0.54740980585097
  C   -1.85674654624979     -0.67140318228342     -0.11156327498532
  C   -3.21719410954668     -0.28199871049353      0.01619881203233
  N   -3.69373904303651      0.84138342037137      0.60145584828685
  C   -3.07990259471656      1.98306747422414      0.66749027545991
  C   -1.82562289466825      2.37724330098229      0.16047682186874
  C   -0.72749731768071      1.59534342788336     -0.11703380293272
  N   0.38500535674564      2.33246178782442     -0.43545413681025
  C   1.53113822546730      1.72688531552149     -0.40693506633454
  N   2.74068261562617      2.33734657315553     -0.66194079186402
  C   3.63579777405076      1.40719013396764     -0.41918171063763
  C   3.08424436457444      0.12977452051392      0.01382956833321
  C   3.84365287468476     -1.00178248991426      0.32805879892018
  N   4.52723286211822     -1.90897583818516      0.57592565079906
  C   1.71662005362224      0.31807652386564     -0.00030412689383
  C   0.57399007792928     -0.46227210174295      0.22334143437258
  C   0.72176120532771     -1.79659636517224      0.66854278767651
  N   0.88565923076183     -2.85450753479468      1.11656968790377
  C   -0.68955954647293      0.13167846340697      0.04930194930069
  H   4.69327290493012      1.59895550501776     -0.53744479333455
  H   -1.64465209106582      3.44144560354538      0.09210278200354
  H   -3.65100309570236      2.76573022601998      1.15886811301666
  N   -4.19355665621336     -1.11451485582709     -0.38180893660782
  H   -5.13534959719098     -0.88272998769572     -0.12249827578021
  H   -3.99780903714625     -2.03470111964283     -0.73543107765544
