28
Coordinates from ORCA-job ./opt_b97-3c_parallel
  N   4.26024978454752      2.71174838099295     -1.09554019722440
  C   3.58328246098520      1.82656822358600     -0.75755584358403
  C   2.86946062748042      0.70473770202412     -0.34273369800011
  C   1.50537585437410      0.51275935258551     -0.14946890632007
  N   0.49515251396891      1.36179036216183     -0.26299317408072
  C   -0.73388169443283      0.90587005627891     -0.00169613344572
  N   -1.65871948820474      1.84175206413188      0.14560437471565
  C   -2.97400083488730      1.72226526032192      0.24801622082917
  N   -3.81056930046277      0.77661436145930     -0.21878062961531
  C   -3.45852409680563     -0.48169755176132     -0.35818889680812
  N   -4.41151550423933     -1.30573411339396     -0.85431374611074
  H   -4.18496002946632     -2.23226542697255     -1.16258315015180
  H   -5.26199740994450     -0.89016103526178     -1.18978309837367
  C   -2.23340777552459     -1.11297014460996      0.02590986966279
  C   -1.00153052571240     -0.55095825974148      0.20312652015650
  C   0.12234178272668     -1.41016681981800      0.47949661587776
  C   -0.08212478443516     -2.77244412575559      0.78314686181026
  N   -0.30714748761252     -3.88653487543868      1.02251960614599
  C   1.38711178393653     -0.89504135455783      0.30732034618159
  N   2.58331788951884     -1.49912230535558      0.41392166025806
  C   3.47093281299387     -0.56213285752798      0.02788324508604
  N   4.77401135567868     -0.81003944798745     -0.00011840227573
  H   5.43071975887040     -0.10696160264317     -0.28909567357175
  H   5.10928469220223     -1.71569081094809      0.27748887453831
  H   -2.28474490076163     -2.19183866850341      0.11099321361839
  N   -3.59484051684176      2.77968470124703      0.81509041019445
  H   -3.05885902075651      3.61546356759243      0.96302191477976
  H   -4.59284622399537      2.84748083519495      0.73883778420743
