26
Coordinates from ORCA-job ./opt_b97-3c_parallel
  N   -4.25388238625436     -2.06528451705120     -1.61440931749546
  C   -3.54125199206197     -1.29887883877682     -1.10242832673541
  C   -2.77680391904795     -0.32481872514235     -0.46575966516756
  C   -1.40810976221594     -0.22543585288966     -0.25053785447890
  C   -1.23016074707390      1.05438148538646      0.51628269229906
  N   -2.41069255591929      1.62394035152950      0.81313914433006
  C   -3.32615276988309      0.82380412884506      0.23105433504926
  N   -4.62169087766346      1.09266856432106      0.30977287558594
  H   -4.92554352069147      1.90261285990565      0.82105627803095
  H   -5.30316591397042      0.49744646515520     -0.12721902454052
  N   -0.04325270602165      1.55562565794080      0.75788160527451
  C   0.99772189101020      0.81474916790217      0.30638888263903
  N   2.11986269961456      1.45983038727356      0.12708598832108
  C   3.32857986020995      0.98254094246564     -0.20274882388288
  N   4.16754809030452      1.94045490754915     -0.68175329387110
  H   3.76322262233287      2.84202529405929     -0.86285233602405
  H   4.97749226886840      1.67961001542475     -1.21197906951384
  C   3.82515833969103     -0.29572459882587      0.03567061331285
  C   3.02603375187995     -1.40818042854970      0.31607891739383
  N   3.60907031460090     -2.52911389154251      0.81490086825145
  H   3.08546505472054     -3.38358112099345      0.74606977061877
  H   4.60673272267860     -2.59756511158378      0.88650339611885
  N   1.72257059815522     -1.55483094899281      0.06569726990125
  C   0.79664477057556     -0.63321079334525     -0.07299020721603
  N   -0.40957174296157     -1.05476750891595     -0.49203605553686
  H   4.89972873922257     -0.43189884154907      0.01265057283607
