28
Coordinates from ORCA-job ./opt_b97-3c_parallel
  N   -5.59371549382196     -0.86098316055590      0.37707107830673
  C   -4.44871411670520     -0.69341370296553      0.24501940180306
  C   -3.06880590784240     -0.48256352160400      0.08925910726920
  C   -2.57143758788147      0.79433431288399      0.37491362455216
  N   -1.36526205349977      1.28927818187082      0.00648589195356
  C   -0.25034715951634      0.66201130326029     -0.18458493178960
  C   0.00007287375645     -0.80428558098387     -0.01925607754672
  N   -0.95084337763701     -1.71045914631310     -0.26267864157245
  C   -2.25275960710824     -1.57961964713477     -0.36543572356754
  N   -2.89178327845624     -2.64165017945589     -0.90097296943319
  H   -2.35235351181607     -3.47702749297118     -1.04245397986876
  H   -3.89331255492949     -2.70862913922699     -0.91458056471405
  N   1.21005799037693     -1.26601038025960      0.23632973285527
  C   2.24204148863456     -0.41881182223638      0.16593525475909
  C   2.13748276987476      0.98392715054827     -0.30469800637631
  C   3.45578946257532      1.54320279552777     -0.35542000971003
  C   4.31110271133191      0.57912029663169      0.07932237291409
  C   3.58326676343381     -0.65032431874289      0.41256351477872
  C   4.17220607872767     -1.82818025706127      0.87518024194041
  N   4.69405670010020     -2.79459232903820      1.25996693567622
  H   5.38104092647073      0.67395414635337      0.17833391414047
  H   3.70195932700499      2.54559954600633     -0.66158670736402
  C   0.89374724830405      1.50424479754313     -0.50353828430038
  C   0.68422785452578      2.86097843402034     -0.84284954688543
  N   0.54455344528978      3.97541775023927     -1.13293011366300
  N   -3.33958393399410      1.71307181787494      0.98393765827220
  H   -3.02527484551121      2.66699261218612      0.97633033545970
  H   -4.29080767648880      1.51793615130260      1.24163258590924
