34
Coordinates from ORCA-job ./opt_b97-3c_parallel
  N   4.96062264512646      1.41431939123549     -1.00877688792960
  C   4.01534418648086      0.81271792418455     -0.67566995265375
  C   2.88394138453356      0.09817654399598     -0.25947110347527
  C   3.13810461770852     -1.18848950155053      0.33553491836637
  N   2.33020355875021     -2.22502169022921      0.42517985993769
  C   1.04701754164892     -2.22337861045359      0.06906142377499
  C   0.10701866734239     -1.21437261005595     -0.08354138442396
  C   -1.22151862631312     -1.68462578209690     -0.21969697571991
  C   -2.28478777406564     -0.83699910342578     -0.16358733813195
  C   -2.06713362207606      0.58135988776851      0.07673785771945
  C   -3.33297913785344      1.17715720163873      0.17715422597483
  N   -3.58846584741705      2.53496224955278      0.40279082501021
  H   -3.12501435254983      3.13987310197315     -0.26037168177430
  H   -4.57438354210172      2.74654063665613      0.40725996183746
  C   -4.31844786889530      0.17003258560070      0.03508822515923
  C   -3.69661198847586     -1.06006510647404     -0.16418258003580
  N   -4.31420467560072     -2.26826536355116     -0.41876319421315
  H   -5.24596051849507     -2.35182065587295     -0.04670469569517
  H   -3.76137883438005     -3.07996690383681     -0.19663399044062
  H   -5.38534198508463      0.34205551989167      0.04932573104967
  C   -0.77357207503797      1.08131471461509      0.21949103838808
  N   -0.64632182246871      2.43044146528716      0.55344851383406
  H   0.20809842763568      2.65811588690937      1.03677595098471
  H   -1.45232058005519      2.77230696943008      1.05749036520701
  C   0.35245000990796      0.23407204934814      0.00661534849866
  C   1.63475301413947      0.77644505686102     -0.29723352526289
  N   1.71355216553850      2.08674101897126     -0.66098142996486
  H   0.88545566341351      2.55598134246144     -0.98227150646133
  H   2.59111118675333      2.44120412290944     -1.00052735541692
  H   -1.36502008078995     -2.75481925728898     -0.31172823001788
  H   0.65073843379187     -3.22854953658614     -0.04565100537451
  N   4.38411248814595     -1.40646336530753      0.81655594473581
  H   4.63094049830328     -2.35900565592106      1.01677445675516
  H   5.12172811783963     -0.74150096703965      0.66922536615893
