26
Coordinates from ORCA-job ./opt_b97-3c_parallel
  N   -4.04415057839528     -2.04796651826472     -0.00239440419247
  C   -3.24688030543874     -1.19981850568189     -0.00214775429272
  C   -2.40778529823869     -0.08503434609368     -0.00164989186522
  C   -2.89743776204825      1.27954166640967     -0.00157259561607
  N   -1.91537693186739      2.19922391303019     -0.00104046774268
  C   -0.77107635127203      1.48635275892180     -0.00076391570639
  C   -1.02432564426857      0.04059450732398     -0.00115836471862
  C   0.05216667153911     -0.85346211879339     -0.00094066861161
  C   -0.20492507206670     -2.24494408373753     -0.00124261980700
  N   -0.41225135523536     -3.38724398951811     -0.00110057463119
  C   1.38386838935445     -0.37431498994513     -0.00035780755081
  C   2.42209382297218     -1.31348547015037     -0.00020802780314
  C   3.80364255100937     -1.18354260909499      0.00037938178870
  N   4.60256128718564     -0.12018443192207      0.00102295538618
  C   4.16663579665962      1.13040578452275      0.00119840980063
  C   2.88300720686109      1.66583583848879      0.00078569185884
  C   1.61281320588913      1.08084853354792      0.00008615785508
  C   0.51948610279530      1.95917970079435     -0.00015866365067
  H   0.69142682582626      3.02618826830527      0.00016104975398
  H   2.87041601764225      2.74993157875359      0.00107459772162
  H   4.96493419864342      1.86653457682039      0.00175939295409
  H   4.34407577669695     -2.12457960254738      0.00032383214997
  H   2.09576424638418     -2.34615733894150     -0.00061421275959
  N   -4.18293016945855      1.61860360580071     -0.00196239729986
  H   -4.90382919428413      0.91914560087695     -0.00232856948041
  H   -4.43924975208527      2.58943022489438     -0.00185732604065
