28
Coordinates from ORCA-job ./opt_b97-3c_parallel
  N   -4.39164919232670     -2.72073739502738     -0.93053803147914
  C   -3.70628761890413     -1.82611227906099     -0.63310729454132
  C   -2.94781204806831     -0.71836542509080     -0.26650903931311
  C   -1.56405908551483     -0.56889383190792     -0.17039149513186
  C   -1.37011412904799      0.82978960389099      0.28313935599287
  N   -2.53473317567083      1.47448261534762      0.44378757653271
  C   -3.48209209590719      0.56724448865621      0.12015879098947
  N   -4.77133743848301      0.87354592989117      0.16878067335070
  H   -5.04645409046490      1.79904982607264      0.44761554722728
  H   -5.47701024553847      0.19965963861853     -0.06998243896115
  C   -0.08770925629866      1.33557064676512      0.44309123187483
  C   0.12642645637453      2.69595510433410      0.75495266257996
  N   0.30069005502358      3.81236743549111      1.01932478287311
  C   1.03095035657156      0.50504978572707      0.12866528880418
  N   2.17740789580549      1.10885907882626     -0.03570724231826
  C   3.36444475532763      0.54302509861836     -0.35051633110747
  N   4.20429996950014      1.39710233762765     -0.96702169395372
  H   3.95846033074597      2.36969817166321     -0.99673086394897
  H   5.16019821988238      1.12426861055135     -1.10262650849879
  N   3.84801843695401     -0.65604860177615     -0.06855384110871
  C   3.05760648996941     -1.67954322685163      0.27039359724131
  N   3.69717087465014     -2.72712145422501      0.83424005071081
  H   3.20392287881015     -3.59629994884878      0.91937736001198
  H   4.70011303383297     -2.72743806356007      0.85103810504091
  N   1.75268070388905     -1.88632295939676      0.06060851344749
  C   0.80332477412397     -0.97144091263107     -0.08045707011316
  C   -0.49401380003902     -1.42283829513485     -0.32956951472420
  H   -0.63483483189692     -2.47383955557008     -0.53665120377776
