24
Coordinates from ORCA-job ./opt_b97-3c_parallel
  N   -4.24076827056717     -1.96994450426077     -1.33760022492383
  C   -3.45383151204521     -1.23036259742025     -0.90154057315162
  C   -2.59633090890195     -0.27422539023548     -0.36259560250162
  C   -1.22440854318266     -0.28537856689100     -0.14613958837811
  C   -0.92226873989458      1.04429685193593      0.48311035421329
  N   -2.03768436601081      1.75170862437246      0.71042212808450
  C   -3.03067635741725      0.98727271438704      0.20522454676611
  N   -4.29152535392678      1.39018009577276      0.24624354638234
  H   -4.51226684042977      2.27339245713545      0.67205784640293
  H   -5.03099821236345      0.82302546365330     -0.13007440646745
  N   0.31180599490321      1.45192645864026      0.67783672873934
  C   1.26803692450190      0.56899991101800      0.31958688023316
  N   2.44831977054651      1.08248032562088      0.06089663835839
  C   3.61232369454801      0.47468142243790     -0.15702425526533
  N   4.54462997122828      1.24978609047440     -0.74842188119165
  H   5.43575566428119      0.88613238519155     -1.02603981580528
  H   4.31200030990069      2.20103601389076     -0.97013020033111
  C   3.97183548037777     -0.81287691643723      0.29460780973141
  C   3.06816571451417     -1.80381500125966      0.59870516305500
  N   1.76390718957007     -1.87500345945780      0.36500655284375
  C   0.92745710267823     -0.88629814538780      0.10226603799409
  N   -0.31283783196056     -1.23269944759903     -0.27461708351481
  H   3.48112121073290     -2.71714528024991      1.01743237390829
  H   5.02509496660787     -1.04080712911712      0.40369594791766
