28
Coordinates from ORCA-job ./opt_b97-3c_parallel
  N   -4.38955494529661     -2.49661946093043     -0.52501774470845
  C   -3.69802873907912     -1.57434196325310     -0.34799073198583
  C   -2.93620442652481     -0.43144559889201     -0.12823882981372
  C   -1.55278891351136     -0.26424077391589     -0.07921551642970
  C   -1.35457373147021      1.17379480286697      0.18907010164856
  N   -2.53386121623327      1.83451187032297      0.29266770230301
  C   -3.47335897808442      0.89531090154020      0.10595287913144
  N   -4.77317143816385      1.18400359057051      0.13915855914796
  H   -5.46696301848206      0.47289631197833     -0.00413583971065
  H   -5.06341778653674      2.13102724056914      0.30282291496912
  C   -0.08558286890130      1.68353028842107      0.27874845636477
  C   1.04230084897992      0.85920474273336      0.08699002171447
  N   2.19003560883402      1.50476349923178      0.01171068894530
  C   3.43028364275984      1.02298556287475     -0.16863375963431
  N   4.33128973045840      2.01514093060243     -0.45152513556829
  H   4.02112836111766      2.94788159208993     -0.24377495235965
  H   5.31273176954977      1.83697402675883     -0.34214063290355
  C   3.88791113936091     -0.28451327106504     -0.08692533971841
  C   3.10134423929258     -1.43281256380581      0.06606902213876
  N   3.76104060017598     -2.63043634197243      0.20570033474206
  H   4.67720028237890     -2.62909922170052      0.61614203067462
  H   3.17098858284504     -3.40310020172515      0.46189224247590
  N   1.78321450360994     -1.56758451810589      0.00575181542439
  C   0.83403320197085     -0.63575359654907     -0.05563358141990
  C   -0.46981068607656     -1.11376044638760     -0.18941472559576
  H   -0.59999780206525     -2.17920175874425     -0.31258888731735
  H   4.95841074604427     -0.43663263338180     -0.17008173240899
  H   0.08096651304747      2.74168612526868      0.41275706429418
