25
Coordinates from ORCA-job ./opt_b97-3c_parallel
  N   -2.10073926733237     -3.26283517207254     -0.07155924618127
  C   -1.88428117376969     -2.12125303390437     -0.11447581101344
  C   -1.81631683748982     -0.70657431376920     -0.12695256599566
  C   -3.06090787620901     -0.03361621400598      0.06984610036152
  N   -3.34033316904305      1.24477135835650     -0.19661230073685
  C   -2.45753887531281      2.19884193384324     -0.41166497783524
  N   -1.15967663374945      2.29629636169797     -0.18228584891312
  C   -0.27382448063256      1.31825590838049     -0.01039091717082
  C   1.02810434189250      1.71207777618498      0.32422263582045
  C   2.04239536303626      0.78611387344262      0.25945265348657
  N   3.36129429364184      0.93999681669329      0.44260342281977
  C   3.88171072350434     -0.27640720305539      0.11881460176658
  N   5.19852563482119     -0.46257071489165      0.19280193084711
  H   5.78105934900458      0.30017809147781      0.49103938636898
  H   5.62389995963775     -1.34053387348015     -0.03725401650814
  C   2.91226490301610     -1.25245420678851     -0.28247912411969
  C   1.71024550892240     -0.59697581126457     -0.18962454990811
  N   0.45858396924556     -1.02335493787067     -0.39375015785793
  C   -0.52485733040076     -0.14631653915905     -0.23717461909599
  H   3.09088951118535     -2.27299614420434     -0.57516509005703
  H   1.21592205771949      2.75793345951384      0.51829931059522
  H   -2.90287987104988      3.12451481663889     -0.76476291136387
  N   -4.11944505787395     -0.75045566094354      0.49898278069922
  H   -4.07493777637544     -1.75005181810167      0.58786904122029
  H   -5.01944978548891     -0.30842407651805      0.45173382557178
