31
Coordinates from ORCA-job ./opt_b97-3c_parallel
  N   -4.99672778799734     -0.95001256933138      1.18432661845105
  C   -4.03687097271060     -0.40820725385378      0.81126869136541
  C   -2.98126474242531      0.37685471247498      0.34730717238280
  C   -3.14883731082464      1.76044823737685     -0.09661331396646
  N   -2.00678319649693      2.32383584963250     -0.51956605812746
  C   -1.07420120679980      1.36881465716787     -0.36595016745696
  C   -1.63854704260724      0.11579558414550      0.15496789480282
  C   -0.83317187441147     -1.03236661864541      0.23045832824982
  C   -1.41486999898427     -2.24816500230450      0.65698187733240
  N   -1.91784178448413     -3.19694894422567      1.09734235138274
  C   0.52655208416755     -0.94821153107045     -0.10744992100734
  C   1.23703834722910     -2.10493545769335     -0.54129498627951
  C   0.51069866576955     -3.19885561855720     -1.07744436362868
  N   -0.00313513583765     -4.09888731126388     -1.60146560419634
  C   2.62386582240183     -2.26242425589402     -0.63388784739482
  N   3.58716131570811     -1.55310605361003     -0.09735847618641
  C   3.48815612109941     -0.34830646689653      0.44415950798777
  N   4.50068207689417      0.00040276918377      1.25014234255289
  H   4.59758757437722      0.93245525200715      1.61284310600653
  H   5.27883843196782     -0.63117810600219      1.32206231377210
  C   2.47127400766035      0.63582328657950      0.13771090843740
  C   2.88612250371506      1.95866790799343      0.42802853258120
  N   3.34953040186538      2.95310731862847      0.81208828343684
  C   1.14425399288051      0.38536247477700     -0.22622699452233
  C   0.29154839295634      1.48448361587111     -0.57228047472587
  C   0.79304151934367      2.68905093158004     -1.11236117744384
  N   1.15411806210412      3.65530459367934     -1.64437336402471
  H   2.96232337412514     -3.15103194194274     -1.15402637783462
  N   -4.30125255679807      2.40965846375958     -0.09211608740808
  H   -5.14612691442508      1.96979018008174      0.23019577651204
  H   -4.33716128857442      3.35763019434592     -0.42601738444431
