24
Coordinates from ORCA-job ./opt_b97-3c_parallel
  N   4.08155887301697      2.63735920918774      0.46284420728100
  C   3.32105850907554      1.76783436466248      0.32194523136303
  C   2.49236820410370      0.66133110670988      0.14348466607546
  C   1.10576396294760      0.56556961719073      0.09600140933891
  C   0.83155331723068     -0.87373524567368     -0.12716459522271
  N   1.95196498878771     -1.59229188432041     -0.22653177801600
  C   2.95382426301678     -0.69326038899376     -0.06582022182596
  N   4.22253303844657     -1.06831970288492     -0.10448302311884
  H   4.96747562728935     -0.40522149869483      0.01997020929898
  H   4.44503245519234     -2.03743484403872     -0.25407540431466
  C   -0.49047943684471     -1.29852612575341     -0.12017216242925
  C   -0.82317207232288     -2.66965195503931     -0.21467018865117
  N   -1.06427496065359     -3.79991158681159     -0.30618218437850
  C   -1.50332048351850     -0.32515758354738      0.08348665716120
  N   -2.72207293875768     -0.78482311720679      0.32116832255146
  C   -3.87405113411672     -0.14560836328852      0.40787870721028
  N   -4.25564408103478      1.04535889148259     -0.04005604240580
  C   -3.41049468777922      2.02317637677308     -0.33769745916884
  C   -2.03851650134484      2.11920024849392     -0.14090693195456
  C   -1.09965225012280      1.10967660845236      0.10311565776606
  N   0.17396506867443      1.50664665383651      0.17665553846197
  H   -1.59791076788174      3.09754806272431     -0.28579772218663
  H   -3.88914327745994      2.90930558629806     -0.74246028374406
  H   -4.67578335814426     -0.74231969495834      0.82965127930862
