27
Coordinates from ORCA-job ./opt_b97-3c_parallel
  N   0.94723806875668      3.44273204257515      0.74236615535853
  C   1.00836635297377      2.32734714764408      0.41671326721199
  C   1.23939917157318      0.96440028245927      0.13475236673156
  C   2.59867716285378      0.55588547390912      0.29394613815902
  N   3.13131394371011     -0.60043845281637     -0.10421205379798
  C   2.45360721874913     -1.70140318533984     -0.34203047619727
  N   1.25365353031209     -2.08063914822067      0.16750512432746
  C   0.20819377532549     -1.31084479542109      0.28203864311154
  C   -0.98112407216509     -1.96412612652666      0.75091865591195
  C   -2.18878825023308     -1.41307331241865      0.48122333297263
  C   -2.27947216124465     -0.13264578342922     -0.26960053019670
  N   -3.52332279128105      0.16822099290131     -0.55688399692569
  C   -4.28457249077674     -0.86912687286427      0.00378658290107
  C   -3.54335407768477     -1.83623976804468      0.62361670829167
  H   -3.89647791157858     -2.73101907086263      1.10718743514773
  H   -5.35930288709487     -0.83188059557819     -0.09354988555978
  C   -1.10724699697894      0.61827176094322     -0.54168003257530
  C   -1.22982702242637      1.86702156553576     -1.19029522676111
  N   -1.33000069490321      2.85600365076546     -1.78975682588912
  C   0.13250039564494      0.11823083260454     -0.14048226495776
  H   -0.86298561193464     -2.96421601874808      1.14440186902483
  N   3.06229117721276     -2.65455588145778     -1.07386471266175
  H   2.68545683493083     -3.58427247424610     -1.06374187300343
  H   4.02242789443860     -2.52105990304388     -1.33447944003343
  N   3.48399771927843      1.42130875161060      0.82699447501413
  H   4.45766569001314      1.18880008028605      0.75864202616601
  H   3.22987703612735      2.37510769698335      1.01487518912958
