27
Coordinates from ORCA-job ./opt_b97-3c_parallel
  N   -3.44459712280234     -3.12129880551547      1.58084950913527
  C   -2.91959889047120     -2.19114325505368      1.11705391372088
  C   -2.39149582948471     -1.03489290514023      0.54422234083833
  C   -1.05952821616644     -0.67317117598010      0.31637432671591
  C   -1.05682143633051      0.67262241032659     -0.35154486993547
  C   -2.38685781449727      1.03374545703947     -0.59138781499772
  C   -2.91033121566650      2.18969681664095     -1.16904542668781
  N   -3.43156382913373      3.11956441062124     -1.63763786941131
  C   -3.20312578919295     -0.00076626286661     -0.02725845392178
  N   -4.52469089171391     -0.00107358066055     -0.03323249985355
  H   -5.04088812324636     -0.75626074965536      0.38635952825295
  H   -5.03740101276720      0.75385416942360     -0.45754097640191
  N   0.04962597919583      1.36133637569936     -0.53104645712240
  C   1.18174260572911      0.74536083841118     -0.13322568140956
  N   2.21913238761869      1.50515317951610      0.10978088110811
  C   3.45226482683930      1.07324969995050      0.43925250606154
  N   4.14596151843411      1.92390769926353      1.21538431755107
  H   5.12268288809032      1.75451939175376      1.37017964706977
  H   3.77205458944192      2.84056586750260      1.37898289159690
  N   4.10934318168798      0.00080300917461      0.00562033076921
  C   3.45663025436932     -1.07192860152245     -0.43387037503084
  N   4.15761951385102     -1.92231183217288     -1.20373079421072
  H   5.13563321397623     -1.75255647479869     -1.34971157906379
  H   3.78556990217894     -2.83913122084081     -1.37062641372601
  N   2.22077205019472     -1.50432479903364     -0.11547781755921
  C   1.18092115497565     -0.74496612762341      0.11817725193785
  N   0.04555253888971     -1.36140519975952      0.50584233487442
