26
Coordinates from ORCA-job ./opt_b97-3c_parallel
  N   1.49955224056412      3.37009586477889     -0.04981030167101
  C   1.57346204409864      2.21037894331133     -0.01532866279218
  C   1.77863018948440      0.80922343217096      0.01087128062408
  C   3.15173692531462      0.45177718993888     -0.03661003998910
  N   3.71207266388763     -0.74898785256170      0.21390761808121
  C   3.10798477289296     -1.90037599279864      0.26762922338753
  C   1.76725485295974     -2.26191240342245      0.04996675736417
  C   0.63284420997122     -1.48608123444604     -0.05482720575349
  C   -0.58774371829290     -2.19866993880462     -0.18600150799860
  C   -1.78082932738884     -1.54462330080971     -0.14418615378422
  C   -1.81040717109714     -0.09116655720348      0.03089969815252
  C   -3.16613435610370      0.23378647914803      0.05059002354766
  C   -3.74834954965349      1.49594088927208      0.19649813814600
  N   -4.23481294000052      2.54587022840972      0.31812490878535
  C   -3.85096573499546     -1.02276138637092     -0.11089203572886
  N   -3.04608732118647     -2.06955152585628     -0.22542959230933
  H   -4.92530662478643     -1.13883419673049     -0.13981566239106
  C   -0.62993196585192      0.63182957898018      0.11663311669235
  C   0.60461291772353     -0.00278257535509      0.04877402780002
  H   -0.67814495414461      1.70757774216262      0.20637607598128
  H   -0.56308569352195     -3.27550190828943     -0.27690957215563
  H   1.60374569030923     -3.33225638231591      0.01890093709118
  H   3.77231121440748     -2.72876270249085      0.49742522466419
  N   4.07941690767648      1.40106228486782     -0.30570724615611
  H   3.83878457311134      2.37378708662212     -0.36981192193707
  H   5.03585205642199      1.15842874929304     -0.12157408505085
