30
Coordinates from ORCA-job ./opt_b97-3c_parallel
  N   5.34486331768155      0.71801972947161      0.42120309197534
  C   4.20091174101838      0.58974875807927      0.24882044083835
  C   2.82140375948035      0.41655790259229      0.03198562361016
  C   2.10379984910603      1.52813333632978     -0.52631730206421
  N   0.83042971646439      1.77616031826482     -0.36171833865763
  C   -0.19265217679815      0.99027253198721     -0.05437365977323
  C   -1.38333140706720      1.61294844261330      0.34652234220380
  C   -1.38076400046946      3.00048672258324      0.60619108105350
  N   -1.42458487833326      4.13698387029897      0.83981791628123
  C   -2.58931857605657      0.89112127310152      0.34734622136421
  C   -2.61364914658922     -0.47392417938259     -0.22719134623519
  N   -3.88568429179051     -0.94808882371145     -0.32374658479688
  C   -4.63626962858619      0.03849008176592      0.17079059545121
  C   -3.90378718048000      1.19460467040592      0.59385602305111
  H   -4.30822817652177      2.11117430870571      0.98832761599501
  H   -5.71043076053139     -0.07793425348709      0.22446096630397
  C   -1.45050312394699     -1.11955716013846     -0.57756581645702
  C   -1.51176409896755     -2.35947017112319     -1.25133668446801
  N   -1.57338648661379     -3.32852597285067     -1.88704003226848
  C   -0.19289469523342     -0.48480288291113     -0.24994318171351
  C   0.91978535356888     -1.25488263958396      0.03760506622305
  C   0.75799150233610     -2.65861454079985      0.19142682760017
  N   0.77331282734313     -3.78935980647080      0.45531676645657
  C   2.27305950047532     -0.82194813653347      0.37680319821991
  N   3.05697209652620     -1.72190963090685      0.99325528105325
  H   4.02733097177231     -1.52108023420358      1.16254831622379
  H   2.74571282664756     -2.66511088250815      1.14802398689006
  N   2.80653511129129      2.47315018752358     -1.18582252484676
  H   3.80994824262234      2.45177560347766     -1.21837724036110
  H   2.34864861345066      3.35243558341131     -1.35157493745308
