28
Coordinates from ORCA-job ./opt_b97-3c_parallel
  N   -2.14860456250904     -2.96794257050947     -0.99201849716690
  C   -2.07100631499303     -1.90731865768514     -0.52156311328554
  C   -2.15173482374446     -0.57058133409470     -0.06673064219802
  C   -3.48163611959661     -0.03467080126453     -0.09676829020962
  N   -3.90157152101145      1.08080546124120      0.51214346642007
  C   -3.13388975203951      2.08994214417377      0.84315339668881
  N   -1.91197140390307      2.42280299365480      0.45186077932352
  C   -0.92869437281428      1.61821810220239      0.08657400921336
  C   0.25957766485157      2.23859357345889     -0.34182468740851
  C   1.43496514906676      1.53491420722585     -0.34625091800533
  N   2.67727039660283      1.99789555702579     -0.61965282495558
  C   3.49438467472491      0.97577976191574     -0.34514866699284
  N   4.81033259892241      1.04948078842458     -0.49415270736492
  H   5.22489488863159      1.90178409588407     -0.82783991605018
  H   5.40161220197825      0.26539470097973     -0.28017061492847
  C   2.79638289423764     -0.21735309621265      0.13502952936857
  C   3.45998755043085     -1.39437810783003      0.48132688154447
  N   4.13371360002509     -2.30851585692177      0.73723349936077
  C   1.46070995598772      0.13385790724225      0.12217167226397
  C   0.25999676126288     -0.54258301498059      0.40475942502352
  C   0.30997903720055     -1.87938321705703      0.85794588976270
  N   0.38887297440210     -2.94925854576046      1.30258077432751
  C   -0.96072820570861      0.13051240526133      0.22086158671768
  H   0.24738779980264      3.30576799129224     -0.50362025511175
  H   -3.62190075112515      2.84319347447210      1.45382787987795
  N   -4.45575490707998     -0.73656217130969     -0.69797642440441
  H   -5.40059920660078     -0.42224579067878     -0.56902824145276
  H   -4.29414941810547     -1.65109496125103     -1.08191915805810
