28
Coordinates from ORCA-job ./opt_b97-3c_parallel
  N   5.03088955755303      1.97569675225911      0.00428104300297
  C   4.13905716730332      1.22471981088119      0.00372137148387
  C   3.11128374146156      0.28628353100770      0.00306083131235
  C   1.72535514659507      0.47076993544176      0.00225869549692
  C   1.15745844409972     -0.89102869424991      0.00181103142215
  N   2.11271406915390     -1.83164513702415      0.00238397680352
  C   3.27772546689077     -1.14390804372836      0.00309252613706
  N   4.44632049501735     -1.78002234849646      0.00372908487718
  H   5.31445317577996     -1.27606900605194      0.00430230485405
  H   4.45801632692899     -2.78408092911220      0.00375154379221
  N   -0.14113584302647     -1.13058521990328      0.00078480808089
  C   -0.99671161537639     -0.09346640222893      0.00018086962122
  C   -2.34330866602263     -0.52549095495905     -0.00142571425190
  C   -2.49959424044491     -1.94013245441183     -0.00062721138633
  N   -2.85504006655674     -3.04676631325001      0.00102719883260
  C   -3.57722833728456      0.18791417261511     -0.00353048824979
  C   -3.70871629211271      1.58297495723720     -0.00149399988861
  C   -2.73077565963178      2.55134960020444      0.00120287598731
  C   -1.35295793222645      2.43164908848203      0.00220673763255
  C   -0.52711509779027      1.30594804725495      0.00124722983811
  C   0.85981029074191      1.53349821506599      0.00220701094981
  H   1.22451926155627      2.55228776550569      0.00300047780851
  H   -0.81781606080204      3.37395460835235      0.00385243491731
  H   -3.09986714463062      3.56940710953300      0.00252985827884
  H   -4.72922195740480      1.94795774838201     -0.00314081999152
  N   -4.72669524312501     -0.53210427706738     -0.01045868064932
  H   -5.61495998357961     -0.07072557063725      0.00442260639554
  H   -4.71631616866684     -1.53647173020179      0.00063072739246
