29
Coordinates from ORCA-job ./opt_b97-3c_parallel
  N   4.39654641100660      2.97996725874431      0.00652391816693
  C   3.65615229582886      2.08043541145324      0.00629594591125
  C   2.81830768685793      0.96644801602745      0.00608917932486
  C   1.41361722327968      0.91922087242683      0.00403896940188
  C   1.00560904012255     -0.49526098746732      0.00460656645615
  N   -0.25650297458776     -0.89017652231107      0.00336757757860
  C   -1.22918254014041      0.03236485593611      0.00111999712716
  C   -2.51762384266400     -0.53943981529903      0.00237381836511
  C   -2.54716490662345     -1.95969039414644      0.00578636742953
  N   -2.78563931672124     -3.09696385381325      0.00841945439898
  C   -3.80362913567935      0.07509084444496      0.00051277589064
  N   -4.89114993473260     -0.72543285935034      0.00443805586781
  H   -4.80599273130477     -1.72693028534654      0.00401634192078
  H   -5.81279035041479     -0.33314468223281     -0.00158781317435
  C   -4.02009468910327      1.45871246774685     -0.00474488783135
  C   -3.10184557856215      2.48874306943179     -0.00776323665435
  N   -1.77964844507199      2.51952178555034     -0.00546350409232
  C   -0.92576270327172      1.49410561787245     -0.00108892553647
  C   0.42811971856207      1.87129166385022      0.00099609104126
  H   0.64677010942590      2.92912186932134     -0.00046053133574
  H   -3.54404450681922      3.48118490312416     -0.01233382553368
  H   -5.05751102369833      1.77266111458663     -0.00659876864427
  C   2.16242862841341     -1.28208122898836      0.00682502121998
  C   2.29866496155565     -2.67052325264747      0.00807666612648
  N   2.51422318599651     -3.81431788330794      0.00918390945326
  C   3.28116593791831     -0.38298355324771      0.00779487866853
  N   4.55277882708686     -0.76150817118820      0.00991402850508
  H   4.79864025601285     -1.73673480639008      0.01099087455961
  H   5.29336363532796     -0.08153388758018      0.01049368468867
