30
Coordinates from ORCA-job ./opt_b97-3c_parallel
  N   5.15602507349825      0.51711302923543      0.74033143596610
  C   4.02996591797371      0.36507900648974      0.49113555437912
  C   2.66956767918983      0.15255153579105      0.18352630116716
  C   2.24994814339263     -1.18891347541719      0.22287930840039
  C   0.94416477548617     -1.65686926397513     -0.15444886525682
  C   0.85834368096284     -3.06186699112160     -0.35839612099496
  N   0.98893780249563     -4.21020340254862     -0.47713038739630
  C   -0.26757742642544     -0.97395807693875     -0.21484374163838
  N   -1.30906816231283     -1.81982816726769     -0.45477484169218
  C   -2.52174704271946     -1.37082072178068     -0.25729379014032
  C   -2.81889200264878     -0.00442094094079      0.27253610399540
  N   -4.10043118697961      0.15039298830476      0.51596744060980
  C   -4.67273928873528     -1.06256807405071      0.12051727116568
  C   -3.77865890540218     -2.00397273630302     -0.34253702663090
  H   -3.97973459681420     -3.00699688224563     -0.67487758955354
  H   -5.74356122513525     -1.17668548389973      0.20425378137207
  C   -1.75160909835846      0.89584944390613      0.39119858813845
  C   -1.99703798705939      2.18954420752219      0.90598748265861
  N   -2.20791829971052      3.21242894875628      1.41133039193241
  C   -0.45981796132182      0.46592799214203      0.02631076190059
  C   0.53771304022057      1.42409573004601     -0.29934922392549
  C   0.09741349746952      2.68653417916986     -0.76116219943628
  N   -0.13131757460665      3.72228718531783     -1.23791162247807
  C   1.95025513507819      1.30250875405023     -0.25497122483867
  N   2.68466176250830      2.38190386131455     -0.58622257223994
  H   3.68728348807422      2.36338924166652     -0.53938398018113
  H   2.24530930066337      3.26831776259044     -0.76532743654426
  N   3.13892757761807     -2.12696513682843      0.59604218428157
  H   2.89877729802276     -3.10238865717214      0.55815865894078
  H   4.10073236767562     -1.89167954551272      0.76717019423906
