28
Coordinates from ORCA-job ./opt_b97-3c_parallel
  N   -5.12500636472957     -0.10876131969549     -0.00469342952903
  C   -3.96251990110080     -0.07096742658946     -0.00041963467917
  C   -2.55116548155954     -0.02825751018400      0.00357631379549
  C   -1.92012572891059     -1.29097645459846     -0.08137933327577
  C   -0.51918316405825     -1.53360224286801      0.04244340352502
  C   -0.17474921803753     -2.91348830083464      0.10239308385005
  N   -0.12439753775626     -4.07455295693692      0.11753498473129
  C   0.58372359121593     -0.66817944272211      0.10348010053784
  N   1.73017951660176     -1.35440724099203      0.25412213015167
  C   2.86818599292180     -0.69489466131624      0.16000632654711
  C   2.94439141820144      0.75453847414940     -0.13370729510563
  N   4.23795798436402      1.11143262665579     -0.19647964521775
  C   4.86199155550286     -0.06497649550793      0.05641765691978
  N   4.11102457444840     -1.17399747587302      0.27881517214572
  H   5.94131362285345     -0.11991626271401      0.08101560311146
  C   1.78288623113564      1.47136845605897     -0.23327560368577
  C   0.54912781102505      0.80910956536107     -0.07777760237317
  C   -0.61088979298676      1.60852641258183     -0.02690836029368
  C   -0.39866246943221      3.01078591573721     -0.09135145836391
  N   -0.31591613132976      4.16909168732264     -0.12988471358909
  C   -1.99285055784103      1.26965743555293      0.09677218982389
  N   -2.85911608089568      2.29040392051234      0.27627516747598
  H   -3.85108007834812      2.13435221619046      0.27342738510146
  H   -2.54561218023892      3.24435574618619      0.24987384255468
  H   1.81743618364600      2.53947824470219     -0.38822992471880
  N   -2.70958073414686     -2.36873819187290     -0.25021683208870
  H   -3.71034658587739     -2.28540683993662     -0.26153686129886
  H   -2.31841128206367     -3.29505426297551     -0.22233963436286
