27
Coordinates from ORCA-job ./opt_b97-3c_parallel
  N   -0.79538352832937     -3.72673857095451      0.00042431395040
  C   -1.02663963557390     -2.58649754589088      0.00016943863983
  C   -1.40351623114807     -1.22513009480434     -0.00028542204730
  C   -2.81484447588490     -1.02996855763944     -0.00063026015059
  N   -3.52473065134393      0.10343635591814     -0.00113290076876
  C   -3.08114293148501      1.33828659835155     -0.00126381464308
  N   -4.04565715701355      2.28798399461194     -0.00154971373972
  H   -3.83169653171263      3.26641470506860     -0.00271965766966
  H   -5.00683163709274      1.99949638908367     -0.00245444535441
  C   -1.74549049409261      1.83798119039452     -0.00101792710577
  C   -0.54158736733081      1.19035928909114     -0.00067029819069
  N   0.50813930152148      2.08572489957851     -0.00064478523405
  C   1.71155862316756      1.60273868154117     -0.00033914064693
  C   2.01883058495721      0.15896313999036     -0.00001237689898
  C   3.40615101737225      0.09190984650558      0.00023974151441
  C   4.22170217719669     -1.04144261516861      0.00060754654732
  N   4.90515964480393     -1.98368226757373      0.00110705833968
  C   3.83966838388473      1.47331251869572      0.00004367491211
  N   2.86377667378383      2.36006884106314     -0.00028902118886
  H   4.87531235855566      1.78487682635588      0.00015879164554
  C   0.97307719081533     -0.74153484320327     -0.00001837231570
  C   -0.34046673755543     -0.27508780503897     -0.00033389244363
  H   1.17281679928479     -1.80356464921007      0.00023021249018
  H   -1.64164074112335      2.91497073550942     -0.00114541890230
  N   -3.60897168270317     -2.12420630217336     -0.00054194297754
  H   -3.24563406557004     -3.05935636589120     -0.00002620489770
  H   -4.60059516528394     -1.97857520381101     -0.00060554146377
