27
Coordinates from ORCA-job ./opt_b97-3c_parallel
  N   -1.12715475025522     -3.47475265815815      0.78471584109726
  C   -1.12141563593756     -2.35665285590595      0.46106803593459
  C   -1.27590104016090     -0.98532931851315      0.16754974279491
  C   -2.62679037716340     -0.54981740789299      0.16655366447481
  N   -3.11203224018612      0.63792135957521     -0.22826326866144
  C   -2.47947285678061      1.78145360792052     -0.23220834071729
  N   -3.18517188742119      2.84901374361164     -0.68032474320908
  H   -2.71739784714460      3.70347441455393     -0.91842039303292
  H   -4.07645376678288      2.67037308501619     -1.10856250102549
  C   -1.16750879369717      2.07456509368654      0.26139444553965
  C   -0.08893645785636      1.24391946667330      0.34000834597007
  N   1.07062378763393      1.92625373870791      0.67673878771448
  C   2.19190565833258      1.32302091499119      0.46126314566493
  C   2.31125058984278     -0.03065469278307     -0.13053927135221
  C   3.64921593822047     -0.24099326021023     -0.28492569468506
  C   4.27516053321598      0.95504453881554      0.23946158172907
  N   3.44226853076539      1.87850814634444      0.67712313812592
  H   5.34386805811524      1.12085753477429      0.28763969213851
  H   4.14761432666047     -1.10814090665172     -0.68532456974494
  C   1.12753356563727     -0.76878125306073     -0.33816720302310
  C   1.24648496031623     -2.05219860879260     -0.91718135724895
  N   1.43650360380284     -3.05591680598722     -1.46966341234295
  C   -0.10025055927586     -0.19050097077982      0.00243833063002
  H   -0.95554120557309      3.10646125491288      0.50795060245624
  N   -3.59612928619599     -1.42052193539336      0.52102394967999
  H   -4.54477428332323     -1.15106507367261      0.33754232222534
  H   -3.39308027019031     -2.39126979288061      0.68228771336803
