33
Coordinates from ORCA-job ./opt_b97-3c_parallel
  N   -5.05453881516888     -1.33607010562797      1.24522895561382
  C   -4.09505164475777     -0.82009435185766      0.82333253622487
  C   -2.94752642931641     -0.20823885022049      0.29925255045437
  C   -3.14780253920019      0.99540468893513     -0.48554157969971
  N   -2.29785870211263      1.96228282858050     -0.73330703383501
  C   -1.01905022227417      1.99957903256364     -0.32462977454723
  C   -0.12250145893345      1.01321370168023      0.01356867735797
  C   1.26614182506459      1.39184088192235      0.21534916829584
  N   1.62791786409675      2.68084442911672      0.52752091743730
  H   2.48661660836647      3.00613068890387      0.11335828854751
  H   0.90556475205865      3.37686014799416      0.54202281202922
  C   2.23721608476019      0.42545350033381      0.07476230005953
  C   1.89634387246545     -0.93102647722212     -0.30345854861301
  C   3.13140067524034     -1.57605176978906     -0.48338650811854
  N   4.17831632914818     -0.74834946419622     -0.20309817738869
  C   3.65724398887184      0.43427442113162      0.14930209778268
  N   4.46556940096971      1.50541219315990      0.46992245629910
  H   5.42836832060690      1.22464522512393      0.58347388082193
  H   4.14350116889781      2.04122485561631      1.26259911609634
  N   3.36800422457061     -2.88874058760812     -0.79826519414319
  H   2.69642890286970     -3.32200123492615     -1.40856312721178
  H   4.32036830914940     -3.06930640765731     -1.07105155987111
  C   0.57731251709065     -1.34352295799798     -0.24616480592430
  C   -0.43818343660180     -0.42724070684610      0.00387291860257
  C   -1.73178093888100     -0.91182669102307      0.37894333517126
  N   -1.79371910299058     -2.19269729091959      0.83255269704953
  H   -2.67889291864083     -2.55235515624954      1.14804906958779
  H   -0.98236785610550     -2.57564954293166      1.28133780465961
  H   0.33044800273633     -2.38871206523692     -0.38481391251904
  H   -0.63067512543445      3.01065745320531     -0.38993604252524
  N   -4.38552544131654      1.17470673996347     -1.00093277501418
  H   -5.14325572961940      0.55896233865592     -0.76866379575494
  H   -4.59675136290931      2.07921455122315     -1.38212540112516
