22
Coordinates from ORCA-job ./opt_b97-3c_parallel
  N   -3.80411224921788     -2.42244521691711      0.77068295084284
  C   -3.07981112612134     -1.54768350615791      0.51612015440410
  C   -2.30331622276189     -0.43303312021633      0.20289092697827
  C   -0.93584705698619     -0.28133490839542      0.05340855542158
  C   -0.74096413748023      1.15812309793212     -0.29947180008333
  N   -1.90784205835274      1.80789420556084     -0.41159211966497
  C   -2.84088623424003      0.88158289889969     -0.10771804874453
  N   -4.13094828795104      1.17758065673476     -0.10484028052703
  H   -4.42363930029848      2.10961602193617     -0.34197275552945
  H   -4.82368174502536      0.48557226446902      0.12239886560042
  N   0.45836679254528      1.68512249136731     -0.40954354636836
  C   1.48386412944856      0.82373957905718     -0.21953762443115
  C   2.70877172614618      1.38953297082337      0.10307128037062
  C   3.90130027131090      0.74553149353984      0.46216519682854
  N   4.31015054127262     -0.47883584109974      0.21713876692172
  C   3.53559639539221     -1.39491715262444     -0.38833526292297
  N   2.23951718982491     -1.53611289130425     -0.41777431423551
  C   1.27216511978362     -0.65124330054443     -0.14982270021204
  N   0.06047430479435     -1.15916387375193      0.06819454856769
  H   4.09182623966897     -2.21043855271811     -0.83957182206271
  H   4.63024429609917      1.36551469396406      0.97654460164567
  H   2.69212406864795      2.46796373734547      0.20086973140050
