27
Coordinates from ORCA-job ./opt_b97-3c_parallel
  N   4.49578006902288      2.24561004611629      0.00510771638358
  C   3.69748466255388      1.39534036483344      0.00527102858328
  C   2.78729537327843      0.34282820484753      0.00583940126467
  C   1.39019792511280      0.36413471465892      0.00444158377437
  C   0.98397430899382     -1.05498867893756      0.00657916111369
  N   2.05326839235924     -1.87729421669989      0.00909653467502
  C   3.12265450853136     -1.05976149291470      0.00868514863791
  N   4.36553701365055     -1.54435469598364      0.01017577351408
  H   5.16175906829656     -0.93395851399814      0.01310672972057
  H   4.50466246576078     -2.53812099149035      0.01514303427775
  N   -0.26985149652688     -1.45195890635421      0.00614548551228
  C   -1.24610892981845     -0.50725760882641      0.00357871677962
  C   -2.51887298217045     -1.06733545578173      0.00335714015318
  C   -3.81537215446099     -0.53138246633972      0.00116417556095
  N   -4.84427217393936     -1.43044423015979      0.00239417414585
  H   -4.67033902678520     -2.41615640735831      0.00068839683727
  H   -5.79858435978238     -1.12929195705037     -0.00282536028195
  C   -4.14173414278686      0.82834164508994     -0.00155184165322
  C   -3.28168676001560      1.90870081202628     -0.00257177375815
  C   -1.90030142084411      1.95422398236144     -0.00136855924022
  C   -0.93840922324490      0.93680479807864      0.00131281900787
  C   0.40960374294528      1.32435777504269      0.00186862849487
  H   0.65786381841793      2.37796875571544      0.00025462308762
  H   -1.48318636543256      2.95489770298228     -0.00273137269883
  H   -3.76799518866446      2.87659863518710     -0.00474274269111
  H   -5.20014267050442      1.06415724150773     -0.00287238685129
  H   -2.46626179914688     -2.14998283015294      0.00541186865034
