25
Coordinates from ORCA-job ./opt_b97-3c_parallel
  N   -2.06806746190249     -2.91114015909503     -0.29141274956645
  C   -1.75359137367616     -1.81689677723927     -0.05946473606712
  C   -1.53347563901009     -0.42561245326346      0.09781721674014
  C   -2.71083850511550      0.39735194481195     -0.25126919878910
  N   -2.98318682177024      1.58590647502951      0.21179412447072
  C   -2.11287340481517      2.37725546489314      0.86689856768131
  N   -0.82387220966850      2.45006116040153      0.80733268742180
  C   0.02741322507026      1.52479160629683      0.28937155011391
  N   1.19214362721844      1.94731352315941     -0.13021769808492
  C   2.17148213659737      1.03904057072337     -0.33224807625893
  C   2.06286807867534     -0.36536594456678      0.13668937772378
  C   3.35350295168775     -0.97880315862210     -0.00302024672978
  C   4.16836003842125     -0.03836077121193     -0.56251230033053
  C   3.45601267409102      1.21796981746473     -0.75776106439216
  H   3.88240209339408      2.13477800180097     -1.12955087153307
  H   5.20542841094342     -0.18903205890343     -0.82256580685011
  H   3.59647300954648     -1.99693358566939      0.24909069570475
  C   0.85368918165438     -0.82165137530387      0.56746903882057
  C   0.73749375983421     -2.11193230475785      1.13451509892066
  N   0.72604385075384     -3.14739950809378      1.65860955677456
  C   -0.28540599561112      0.07280828702344      0.38247989712811
  H   -2.59531206610691      3.14783750054838      1.45989800721911
  N   -3.61636543176908     -0.16305085866192     -1.07174464572872
  H   -3.56895613792111     -1.12901556974211     -1.34180670231611
  H   -4.47727383162167      0.33446389757352     -1.21612162537186
