26
Coordinates from ORCA-job ./opt_b97-3c_parallel
  N   -2.09372763033939     -3.24683380930656     -0.00127063455181
  C   -1.92937083087084     -2.09571841613080     -0.00122372320017
  C   -1.83801119945384     -0.68064580187272     -0.00133349127905
  C   -3.12883501773472     -0.03865531340041     -0.00246317066296
  N   -3.43107011391372      1.25451020499090     -0.00428459149581
  C   -2.57243905968588      2.26238300145601     -0.00419924160308
  C   -1.19498113206823      2.32093790509241     -0.00196151215826
  C   -0.21623286576879      1.31526508118375      0.00018001290507
  N   1.03325525249489      1.78132755636730      0.00207762491693
  C   2.03830391164121      0.90037352575660      0.00346371048973
  C   1.83125539462747     -0.56583697957288      0.00273655757840
  N   2.99913056253346     -1.23241598888766      0.00423963483511
  C   3.93541991883578     -0.25001169548960      0.00593877038467
  N   5.23024879777922     -0.57343071978906      0.00776998888210
  H   5.48827232460294     -1.54447172544166      0.00792751541095
  H   5.95066438568159      0.12286940443572      0.00913795943002
  C   3.40058130965425      1.08189457541793      0.00554553013837
  H   3.94854125992130      2.00895326972458      0.00663064252589
  C   0.54724157164721     -1.04602152336008      0.00085874553806
  C   -0.53252567023791     -0.14424109974903     -0.00022418242435
  H   0.37667951901975     -2.11243351552235      0.00050244920000
  H   -0.77088797467405      3.31605627104142     -0.00197878531802
  H   -3.06696059247196      3.22930991250664     -0.00609572852471
  N   -4.22461458496070     -0.83490979668445     -0.00166451799115
  H   -4.17895199129748     -1.83640346721704     -0.00238200670514
  H   -5.11698694496155     -0.37748332234895     -0.00435287022080
