28
Coordinates from ORCA-job ./opt_b97-3c_parallel
  N   -4.45317595466248     -1.71611137504054      0.41176185694016
  C   -3.49571072564448     -1.06399355192022      0.27778200053882
  C   -2.34205510331229     -0.27818320680140      0.10518458987905
  C   -2.57090379729751      1.09467034551241     -0.22900843622911
  N   -1.75125808245687      2.13204760056301     -0.09576154467992
  C   -0.46347252988230      2.08098911365636      0.18331393890754
  C   0.47940426203456      1.05052224004622      0.18393864819558
  C   1.82206082137970      1.48696387339486      0.27430197859826
  C   2.87567614695233      0.62751636669884      0.10850594327391
  C   2.59981621919051     -0.78177747950710     -0.18226189314528
  C   3.82893134982348     -1.41414184443122     -0.37785556504499
  C   4.84169887993151     -0.44588991368649     -0.20478345016784
  C   4.27789487232253      0.79411257717566      0.08791138763887
  H   4.81140581968878      1.71589132712223      0.25851412901846
  H   5.90062261858959     -0.64126842136607     -0.28966141273313
  H   3.98268422340085     -2.45682472840138     -0.60961860241010
  C   1.28866839828761     -1.22947716026108     -0.19475488965735
  C   0.20809857483222     -0.37180161457409      0.02009998136086
  C   -1.09512019575940     -0.94245771706545      0.20027636021668
  N   -1.15380878407944     -2.27227265612611      0.44522927241218
  H   -2.04156780538494     -2.71565541284630      0.60582983562568
  H   -0.34943501622853     -2.73870607285914      0.81725422354483
  H   1.11225493976331     -2.27253793741225     -0.42288957525418
  H   2.00192312220063      2.54397131141716      0.42933618364903
  H   -0.04631773169045      3.06515701370040      0.37988343480166
  N   -3.80059856366090      1.43373309859474     -0.66464041102567
  H   -4.54724267554972      0.76641872076543     -0.73469738681776
  H   -4.01328192878948      2.41330510725256     -0.72152551503571
