27
Coordinates from ORCA-job ./opt_b97-3c_parallel
  N   -5.59077521982610     -0.56214390345843     -0.25473741987852
  C   -4.44091243434675     -0.41159074840418     -0.14333656203081
  C   -3.05516403871296     -0.21872547772367     -0.01516560902758
  C   -2.22906403602682     -1.37238015850688      0.23511236189405
  N   -0.92824075655256     -1.47724096277845      0.12555079499897
  C   0.01926698156539     -0.52964799253969      0.01724959179686
  C   1.31562485318774     -0.95424233585489     -0.20763793559023
  C   2.38313826406125     -0.06818966192734     -0.08309241280511
  C   3.76070846963264     -0.17765830726794     -0.20537065166370
  C   4.50808520171469     -1.29588265153075     -0.57686143030612
  N   5.13691665043697     -2.22598537900934     -0.88519179204254
  C   4.28172600845450      1.13952485130661      0.14621470187588
  N   3.36005316702649      2.01367999301862      0.46232537401743
  C   2.15865886620431      1.31851927517589      0.34238914716585
  C   0.90648782036962      1.78603563031734      0.54090419367999
  C   -0.21615288124483      0.93301124119019      0.25794243405469
  N   -1.35185761003624      1.56441328485994      0.16599457808994
  C   -2.57592981552056      1.08858159380843     -0.16421817518703
  N   -3.39573210631475      2.06389415030338     -0.60204546961367
  H   -4.36222511353380      1.89008624073965     -0.81279400320401
  H   -3.07950386630782      3.01227240285779     -0.51440880547980
  H   0.71053539564009      2.81773487098951      0.79117433889282
  H   5.33175678847582      1.39845442645698      0.15287166286592
  H   1.48108042512339     -2.00419455561990     -0.40181851120339
  N   -2.86814635318263     -2.51869478507137      0.58037307349798
  H   -2.31986950203248     -3.35968123530152      0.55621711133949
  H   -3.86550361695461     -2.60590440472992      0.50384463356264
