29
Coordinates from ORCA-job ./opt_b97-3c_parallel
  N   -4.64297376182285     -1.95642950711813      0.08906136979340
  C   -3.81773718076641     -1.13474436937218      0.05723914734553
  C   -2.93221084674788     -0.05914227975048      0.01836001027416
  C   -3.35390712108631      1.32968388983358     -0.01603244354479
  N   -2.34110155674337      2.20997130026822     -0.05045600771770
  C   -1.22406749588510      1.45376441005589     -0.04147852370909
  N   -0.00450458108991      1.92898882097345     -0.06137002121161
  C   1.03509320441510      1.05084231110909     -0.04516774704332
  C   2.26622908606503      1.67379932416950     -0.05109331341202
  C   3.58471607141024      1.16514203764518     -0.01450638327454
  N   4.02767330876693     -0.08266843494226     -0.00956484933036
  C   3.27558334263074     -1.17885882649345     -0.05531796000387
  N   4.00258788755299     -2.32851291837802     -0.13288178944894
  H   3.57091043370481     -3.21658080564895      0.04228100579156
  H   4.99096596625064     -2.25412955028535      0.02583854147430
  C   1.87508424819925     -1.33459328294075     -0.04360327770858
  C   0.84498945277885     -0.41447066509301     -0.02205106080228
  C   -0.49745744106601     -0.90226733397783      0.00980975639747
  C   -0.74212436695720     -2.29169040985896      0.04723822250317
  N   -0.90648345218293     -3.44155119767312      0.08007276577035
  C   -1.54671689675209      0.00477048239898     -0.00000864136946
  H   1.55336317238779     -2.36831584336335     -0.05407570183079
  N   4.57634589395955      2.09903349828061     -0.01145190112548
  H   4.37274860595641      3.05522361725994      0.21057737153832
  H   5.50991113126979      1.77148612997384      0.15934442057259
  H   2.17979791650195      2.75225637703482     -0.07650437366589
  N   -4.62311934072689      1.72188465852320     -0.01396475216171
  H   -4.83659874528743      2.70276499037868     -0.04164594920702
  H   -5.37220427683577      1.05303704249091      0.00962789960661
