26
Coordinates from ORCA-job ./opt_b97-3c_parallel
  N   -4.39499843320951     -2.16104590167820     -1.35425042140233
  C   -3.68108462901343     -1.35441216330112     -0.90792936153024
  C   -2.88619335099255     -0.35463585965080     -0.35579945856798
  C   -1.50243451201345     -0.25968666467184     -0.24444452097829
  C   -1.26221091891106      1.03127718024010      0.47827298970825
  N   -2.41912729900106      1.63572971681852      0.80126447152934
  C   -3.38191429140148      0.83125519625345      0.30995200028310
  N   -4.66630583921450      1.13279665475568      0.44942306524029
  H   -5.38449712409663      0.53494763501157      0.08089318293241
  H   -4.92372178974776      1.97517386197530      0.93266538206269
  N   -0.06690484216099      1.52275723824685      0.71819101851080
  C   0.98516537354279      0.79350618393483      0.29891968791589
  N   2.11004329795513      1.44784033288264      0.15271407465486
  C   3.29895125849682      0.93350400322537     -0.22366418920481
  N   4.08944147048825      1.82029908715586     -0.86163948213576
  H   5.05055464954488      1.58114868143289     -1.02166204368283
  H   3.81706599438876      2.78594525390618     -0.86019609948709
  N   3.83881628990078     -0.25089902942743      0.03132339921571
  C   3.08219782861801     -1.31396833037629      0.31352503493276
  N   3.72955322450838     -2.34871432871141      0.89313727226614
  H   4.73109710422252     -2.31424694492136      0.94387214287702
  H   3.27493023769194     -3.24303357752499      0.90282664084886
  N   1.80288909651635     -1.55790735785615      0.00652796254999
  C   0.83364174199934     -0.66267159711586     -0.09434407381885
  C   -0.43561972651230     -1.09052690255953     -0.49401976336939
  H   -0.55740888419798     -2.10288872934726     -0.85280569555101
