27
Coordinates from ORCA-job ./opt_b97-3c_parallel
  N   -4.53300678570957     -2.44795168676080     -0.15732405656614
  C   -3.71965541348126     -1.61604376839051     -0.10665899333737
  C   -2.82162510410362     -0.55323840669413     -0.04472192271645
  C   -1.42327496716998     -0.54258579431029     -0.02013574881706
  C   -1.05897860109518      0.88831325534386      0.05069010127283
  N   -2.13140198484522      1.68460906401146      0.07151343104239
  C   -3.19026434675233      0.83650134659069      0.01533327354086
  N   -4.43360789187313      1.30090082883212      0.01818837620276
  H   -5.22178887589775      0.67979977780952     -0.02448087840688
  H   -4.58692683839017      2.29288881395001      0.06209197544082
  C   0.28851295323830      1.21581406524352      0.06576934675324
  C   0.71613220569406      2.56369148688633      0.09871188682213
  N   1.04531606542997      3.67564431900579      0.12361465303543
  C   1.25639377663415      0.16952601645435      0.02277347882968
  N   2.50873039182135      0.59229545291601     -0.00678398359561
  C   3.67316513301720     -0.04114536357996     -0.01614161136540
  N   4.74343291561090      0.79561538581618     -0.06682139274522
  H   4.55211046612253      1.77065101633909     -0.21721380471158
  H   5.66096618399034      0.45511407355637     -0.28340101963180
  C   3.92613653798915     -1.42892879657850      0.06917689681703
  C   2.98665615658537     -2.42677383857923      0.07785733438812
  C   1.59923804858557     -2.34094521344992      0.02782750473248
  C   0.75634935408099     -1.23133419167613     -0.01063765434702
  N   -0.55624618293804     -1.53636504526862     -0.04518472453688
  H   1.05747426465271     -3.27725904878017      0.02648858498761
  H   3.37889479688407     -3.43476367339709      0.13141753616793
  H   4.96544186121950     -1.73037391278991      0.12375664734412
