29
Coordinates from ORCA-job ./opt_b97-3c_parallel
  N   -5.75775060742944     -0.80315002176653      0.60333009746372
  C   -4.62267395512155     -0.67488236215495      0.37932822394401
  C   -3.25632265790795     -0.49290165216797      0.09839329456770
  C   -2.53445063932070     -1.63644499319328     -0.40704222827137
  N   -1.24994479853035     -1.87038292595997     -0.31545865299149
  C   -0.22613329576662     -1.05559932930233     -0.07946992292212
  N   0.92535177997763     -1.64947848505542      0.23353013297155
  C   2.01830547609366     -0.89627903903119      0.22711180852954
  C   1.98456343199491      0.51245154441143     -0.23484020785045
  N   0.87506910958596      1.13731863353946     -0.46268356207754
  C   -0.27613257262391      0.41409246218544     -0.25042008259286
  C   -1.39841970959488      1.20162642442056     -0.08155715784883
  C   -1.20150074954713      2.60778630528220     -0.15309218436231
  N   -1.21041804756000      3.76870639960815     -0.16503017990261
  C   -2.74988609525627      0.79927836283615      0.26485402968302
  N   -3.55767680267290      1.76584295502357      0.72620181985841
  H   -4.52928282888959      1.58238961901149      0.90823370169594
  H   -3.24589778167095      2.72025301286428      0.77835846210173
  C   3.34841083359079      0.98865881380451     -0.30550042961909
  C   3.75802850938415      2.26851716636656     -0.69994256022159
  N   4.09006711638540      3.33117647119746     -1.03191367358551
  C   4.14003387939252     -0.04854640602606      0.13638954820127
  C   3.34815116104490     -1.21460730883392      0.46812053334092
  C   3.86606473972830     -2.43896933007012      0.90060383083205
  N   4.31405066351838     -3.44993074256376      1.26052677295662
  H   5.21368629930453     -0.01164650127827      0.22588086552119
  N   -3.26326468021647     -2.63304940115666     -0.94735802147260
  H   -2.79902664267697     -3.50797470677585     -1.11636515541711
  H   -4.26620969781588     -2.60726146861521     -0.97862689073044
