27
Coordinates from ORCA-job ./opt_b97-3c_parallel
  N   -3.50905869037414     -2.83004581792125     -0.22773225148008
  C   -2.96787603470401     -1.80329353889662     -0.17643379046565
  C   -2.41936740648149     -0.49689103695643     -0.08530824308405
  C   -3.43076957183595      0.52433649173805      0.13533609410539
  N   -3.33542663841918      1.81647508697743     -0.10706818577892
  C   -2.22563528681035      2.50569365607552     -0.33927562374637
  C   -0.89694333216326      2.15349058493728     -0.24359630607595
  C   -0.28699851824811      0.90005454637061     -0.07072697927235
  C   1.11759845502201      0.86395667576364      0.05846051270549
  C   1.84034401657032      2.07486788639790      0.17101640931727
  N   2.41775426058195      3.07770590986363      0.26328114950187
  C   1.80875268171845     -0.35577886244129      0.03671125806324
  C   1.05929329634063     -1.59167935181749     -0.16862844618722
  N   1.89406414242165     -2.69027864559032     -0.20354568085549
  C   3.10143366854783     -2.19695631686103     -0.03169676455742
  C   3.13564483531397     -0.75358233793350      0.12613040446690
  C   4.29327311616098      0.00428695960624      0.32585909649608
  N   5.28761612647641      0.58387329420459      0.49254858669161
  H   3.97483638120105     -2.83344705857629     -0.01318887248537
  C   -0.29296143210152     -1.58797232163461     -0.27758680881417
  C   -1.02981550127890     -0.37368477637537     -0.15972573959431
  H   -0.80806441493929     -2.52926293357196     -0.39378390152419
  H   -0.21520321011857      2.98711095267028     -0.34625460237551
  H   -2.41577412116293      3.54360822896859     -0.58883784655854
  N   -4.63987139756513      0.11967268759265      0.57446854639324
  H   -4.88327805936934     -0.84834749326982      0.67918348597635
  H   -5.37460321558305      0.80453048507960      0.58279651533817
