30
Coordinates from ORCA-job ./opt_b97-3c_parallel
  N   -5.62492710749599     -1.29810496815522     -0.47303273126142
  C   -4.50654008986132     -1.01510222377863     -0.31346453144236
  C   -3.16059542341475     -0.66214105435557     -0.10848583908165
  C   -2.27560468248194     -1.70869797443065      0.28414722744254
  N   -0.96039470485062     -1.74917476751476      0.16333057007584
  C   -0.06417942903598     -0.79697991939406      0.01935892304945
  N   1.17456071461259     -1.23267139156165     -0.27395306777920
  C   2.15695749746115     -0.36271400505563     -0.14761413337135
  C   1.93011102421981      1.02412250125168      0.37163298375503
  C   3.15293052503709      1.63916866322621      0.54480030583241
  C   4.13660634708222      0.71566243214752      0.10802994911643
  N   5.44871686774328      0.91486995875392      0.08807809682912
  H   6.06942098555285      0.19511362484836     -0.24392201558327
  H   5.85399621486586      1.77443895379341      0.41090749898610
  C   3.52836893524756     -0.52051887112183     -0.33404395532563
  C   4.26365545009196     -1.61880844786869     -0.77280237970829
  N   4.96218005345298     -2.48137573931248     -1.12726361001770
  H   3.33123095248660      2.64211459615546      0.89444922279400
  N   0.70010793294763      1.49743878198379      0.51999625574270
  C   -0.30968353392063      0.65932770131952      0.24957139177853
  C   -1.55809024012305      1.27678931765939      0.07398519455777
  C   -1.54259911339688      2.69466615976636      0.12827940038721
  N   -1.68689807620801      3.84783618832319      0.12920921981864
  C   -2.83580492307372      0.70598395774526     -0.22381462368101
  N   -3.81342396434823      1.55341929758191     -0.59737877607719
  H   -3.65508607617791      2.54598991221025     -0.59801732039381
  H   -4.75893009166767      1.23153598020094     -0.70428699892185
  N   -2.81543040947291     -2.85468590033777      0.75215774909173
  H   -2.21316827562241     -3.65686760109178      0.80287305866471
  H   -3.80875753908725     -2.99550412952412      0.79040780517675
