29
Coordinates from ORCA-job ./opt_b97-3c_parallel
  N   3.66160902849050      2.98010410968264      0.54390989610739
  C   3.07964848821727      1.98796736658922      0.37464736672752
  C   2.45444339130931      0.74369149849021      0.12392938773303
  C   3.33758952186848     -0.26586007630906     -0.46438758147410
  N   3.26176457143330     -1.55792603908905     -0.28461557749527
  C   2.25395454753640     -2.22737277528704      0.27223913374705
  C   0.92529922904609     -1.88189724230941      0.40157771197335
  C   0.12188578944409     -2.87462057729326      1.01687442193842
  N   -0.47317010778943     -3.69172062317416      1.58921063733997
  C   0.32011529437977     -0.60176201483614      0.09130011794399
  C   -1.04342621141619     -0.50352011232230     -0.18040606425146
  C   -1.77288388933717     -1.64026845669215     -0.60462180826598
  N   -2.37042204658572     -2.53741942172011     -1.03360788223764
  C   -1.71220012585668      0.73956784665567     -0.06991519652431
  C   -0.97248045000576      1.90161727799028      0.40427553123532
  C   0.36291046645151      1.83595352022872      0.59738332975505
  C   1.08199384435806      0.62382627967416      0.30150999544216
  H   0.92104878826941      2.72025122054759      0.86897805065809
  C   -1.89655910404121      3.01166744498767      0.50357550338943
  C   -3.11055666136162      2.56592145622500      0.10637215747600
  C   -3.01996668943679      1.14861787067256     -0.26548958351206
  C   -4.11786788069948      0.41596082911896     -0.72834925253627
  N   -5.07402575035047     -0.12430731140997     -1.11132517274714
  H   -4.02647994160013      3.13145929141327      0.05246990991251
  H   -1.64067666983411      4.00728854332018      0.82534649733673
  H   2.52338391601226     -3.22103712391798      0.60937853999661
  N   4.36907500370719      0.18265040798032     -1.20252874907682
  H   4.58057183129105      1.15981471254850     -1.28991883458941
  H   5.06052707560718     -0.48615419956284     -1.49327907669955
