29
Coordinates from ORCA-job ./opt_b97-3c_parallel
  N   -1.60584372263174     -3.40100937228802      0.74308759287480
  C   -1.55726133842875     -2.28181568478225      0.42682100559965
  C   -1.64744516879082     -0.90213233745376      0.14559528909395
  C   -2.96629126764573     -0.36640280048118      0.27188501163887
  N   -3.38615754249842      0.84200524606712     -0.09625657434944
  C   -2.59815267969737      1.87739394170718     -0.31918729590442
  N   -1.35421532571170      2.13269429171293      0.13255641234165
  C   -0.37588152306580      1.26852921587009      0.26622702214493
  C   0.86094800929459      1.80782951401122      0.71132093251043
  C   2.01873719411952      1.12188567539499      0.49545531789450
  N   3.29847463900562      1.52187894851245      0.72373394954834
  C   4.04760340520501      0.53088569213543      0.22623515109100
  N   5.38090012208536      0.58038320450573      0.27344848681515
  H   5.82583316034525      1.36086405021351      0.72316390027433
  H   5.94821237819286     -0.17504844534376     -0.06038977332453
  C   3.28124291319351     -0.55759786778267     -0.35702314403785
  C   1.98103505640054     -0.19483291675552     -0.17836827164847
  C   0.73653574289183     -0.81870517436720     -0.45495525207956
  C   0.76914580459904     -2.08686848596152     -1.07208566321071
  N   0.88944845805863     -3.08872851747212     -1.64909811807816
  C   -0.45101893504423     -0.17791331156908     -0.09658447760364
  H   3.66733658478359     -1.45330949063972     -0.81498952211599
  H   0.86732674680414      2.83069428413483      1.05703562040856
  N   -3.14824416956741      2.90389858075196     -1.00608976370163
  H   -4.13411452913706      2.87626309665472     -1.19228274132060
  H   -2.68735673561986      3.79437721201876     -0.97231324093010
  N   -3.94342318385898     -1.16261589186303      0.75543345955556
  H   -4.88728221653056     -0.83372394157685      0.66968003091349
  H   -3.78644544244865     -2.14154684405277      0.91686208870006
