23
Coordinates from ORCA-job ./opt_b97-3c_parallel
  N   -1.91457952288726     -3.21377273012705      0.01788196548834
  C   -1.64923711930189     -2.08434480345653      0.09074034357343
  C   -1.50770673433255     -0.67707894195916      0.13685952997300
  C   -2.70616408666109      0.06583918915081     -0.04227864467806
  N   -2.90363525131327      1.34612011127409      0.31543039007106
  C   -1.97369358982727      2.24557763983168      0.48996139077339
  N   -0.69372214051486      2.27921085421693      0.11115256321972
  C   0.12095369955829      1.26192630555671     -0.04971115731656
  C   1.44180358228368      1.57308086677649     -0.47269566101986
  C   2.39784961849310      0.61535681260915     -0.35257451911964
  N   3.74700365734359      0.70183881290887     -0.55823480224474
  C   4.21056356040302     -0.47426586042004     -0.13066724744411
  C   3.21682305068333     -1.37986527243887      0.36216378952848
  C   2.02728142169253     -0.71123943004451      0.21569406496342
  N   0.75805085599730     -1.07902451175622      0.45672565996386
  C   -0.18612619780922     -0.17791188638049      0.26778312450284
  H   3.37391489252840     -2.37250877489382      0.74802022424240
  H   5.27210221348061     -0.68077465641481     -0.17781578226978
  H   1.66720554575267      2.59289722313906     -0.74945819099524
  H   -2.32366422080334      3.17832640107078      0.92051264809579
  N   -3.80641036934890     -0.55263861151311     -0.51068139880230
  H   -3.82088681607870     -1.54532830987690     -0.66566354231393
  H   -4.68120944393793     -0.06729469225271     -0.42560102139162
