24
Coordinates from ORCA-job ./opt_b97-3c_parallel
  N   -4.00047139046957     -1.98012611510209     -0.57642434666185
  C   -3.19688441123589     -1.16262034646562     -0.37594894459492
  C   -2.35763868197317     -0.07615854467369     -0.12643537408640
  C   -2.85478054066221      1.27529746841854      0.11623653190812
  N   -1.88083763535209      2.17328776104672      0.32546571726897
  C   -0.73182330052263      1.47261070869071      0.23187936002975
  C   -0.98377744060038      0.04021586192596     -0.05276393993209
  C   0.08459624112049     -0.87021810649907     -0.10514545015918
  C   -0.14793203496336     -2.26167967363994     -0.19394283166218
  N   -0.36731189858091     -3.39787190123775     -0.27554462427131
  C   1.39034322094055     -0.39346461782872      0.07006737275083
  N   2.33810149741312     -1.26481703999557      0.41087793659459
  C   3.63291640123427     -1.05322167504445      0.50321852309150
  N   4.40541448603171     -0.13429055619876     -0.07965536279361
  C   3.92657217100424      1.00149292832524     -0.54888192272360
  N   2.78343861348613      1.63524831540382     -0.29886092210093
  C   1.62712744417148      1.09600792067369      0.05475732032680
  C   0.55177870824556      1.96247274635764      0.28717935191898
  H   0.74073257596362      3.02292971613364      0.35908567965395
  H   4.62085928050436      1.57661500793878     -1.15343123228296
  H   4.17350275106104     -1.81704476530116      1.05211697915195
  N   -4.13841473649790      1.60178159670057      0.13013477848019
  H   -4.85203516353602      0.91130388567554     -0.02715896382189
  H   -4.40632571148220      2.55497393749601      0.30296211881524
