32
Coordinates from ORCA-job ./opt_b97-3c_parallel
  N   6.00818772291572      0.24245485590349      0.32732556344024
  C   4.85035552177729      0.28113704188952      0.20983813642099
  C   3.45118160876701      0.33826628200649      0.07297460852822
  C   2.84423183422092      1.59445417236957      0.30740192145306
  N   1.63174435270403      1.99358917157160     -0.07467660447796
  C   0.52186576924294      1.31214813078297     -0.24906569132460
  C   -0.60021551710526      2.08534410561669     -0.63646768702104
  C   -1.86193812648566      1.58660309639892     -0.49147568188679
  N   -3.04379464371173      2.22589268378821     -0.70187262865058
  C   -3.97475329084651      1.36954476825908     -0.28789299306273
  N   -5.27568689158489      1.63091900166403     -0.33530414925144
  H   -5.59242461471495      2.50945973056433     -0.70569890108431
  H   -5.95175266618759      0.95863604961771     -0.01786738791553
  C   -3.42359983711347      0.10886933000773      0.22920344994683
  C   -4.22498108056935     -0.92278480252585      0.71634406159001
  N   -5.00601796109603     -1.69905559218775      1.09451955340300
  C   -2.05852142862325      0.24228766450863      0.08056615777063
  C   -0.95146813262113     -0.59473760330373      0.32128417302373
  C   -1.16717099558879     -1.86552274315600      0.89858539147910
  N   -1.37166216154375     -2.86725185763233      1.44958621754075
  C   0.34084593055442     -0.14044797780800      0.00437179855526
  C   1.37886631045305     -1.06102055269791     -0.28153509952697
  C   0.99800201984159     -2.36312918332290     -0.68214456212035
  N   0.81557786037593     -3.43209480205628     -1.10249918660527
  C   2.79059792119917     -0.85522640602443     -0.31180285067867
  N   3.56605245248219     -1.89002359612686     -0.68547931942863
  H   3.16630033262456     -2.79399693997201     -0.86852556536507
  H   4.56737300313744     -1.81801178901188     -0.66293363519238
  H   -0.43469535051614      3.11957457221325     -0.89683574583516
  N   3.57192185262713      2.57025038038356      0.88980624903622
  H   3.20304181013347      3.50319533055852      0.85706249140037
  H   4.54230297915434      2.44419181632462      1.11568219663973
