33
Coordinates from ORCA-job ./opt_b97-3c_parallel
  N   -5.99007031382254     -0.73999280202454     -0.53459784137685
  C   -4.84761628146819     -0.59359105990445     -0.36830318060426
  C   -3.46247307953610     -0.43089453547380     -0.17714834710492
  C   -2.65493066225577     -1.53425681983286     -0.50217343386497
  N   -1.38523399942747     -1.74471082081385     -0.10476994227510
  C   -0.42897510177008     -0.89613647881160      0.10155265844077
  C   0.86488030791132     -1.52525237207863      0.39330200817734
  C   0.85497633148080     -2.90719351093806      0.69186200223346
  N   0.81457664966398     -4.03679134842226      0.95114678852353
  C   2.00526042760547     -0.80265482622284      0.21900071125746
  C   1.94032116912332      0.59008533437926     -0.21365599707066
  C   3.24756919772516      1.01415728685981     -0.42120625054484
  C   3.71183684961876      2.26261989386486     -0.85172331794452
  N   4.16736602006544      3.27118382668910     -1.20785523974904
  C   4.13515949769616     -0.08302967170273     -0.09899616352693
  C   3.40984197261407     -1.17936951997795      0.28674201397783
  C   3.93240105096704     -2.42435694435286      0.66300295957934
  N   4.38883943763173     -3.44635225777641      0.97371583727997
  H   5.20932408884036     -0.02866841984537     -0.15968080637193
  C   0.69444917379169      1.24819538805241     -0.30192810306515
  C   0.64549251482027      2.59875308055539     -0.71702547746431
  N   0.59210016661099      3.68093829550398     -1.13303197920234
  C   -0.48986676397627      0.55931987877489     -0.01082151307868
  C   -1.67239879720161      1.25194395300143      0.40033719723375
  C   -1.50116418448353      2.51656668933959      1.00207537644273
  N   -1.47501790162052      3.52917341369640      1.57440514650024
  C   -3.01998217581934      0.81086953677931      0.37070929019401
  N   -3.97014735230010      1.63286694926846      0.84736933069297
  H   -4.94077671341073      1.37655041103668      0.82193230478616
  H   -3.74055989556317      2.55858910181747      1.16585776327143
  N   -3.16384600203642     -2.57294918353824     -1.18299254231385
  H   -4.12294062227566     -2.59555086461297     -1.48162366135798
  H   -2.62676206010407     -3.42162446920728     -1.21616303348639
