33
Coordinates from ORCA-job ./opt_b97-3c_parallel
  N   -6.04595499757739      0.04370579772623      0.28994333269519
  C   -4.88526750250616      0.06804049928123      0.20492246589102
  C   -3.48166024287258      0.10267039207210      0.10968113154055
  C   -2.85238042925295      1.32069146884487      0.45485876107670
  N   -1.62452821590514      1.70939252949535      0.11513562176495
  C   -0.53264695461227      1.03257142124139     -0.10998506648507
  C   0.61069610300233      1.82498062597400     -0.46756589445756
  C   0.42522930604876      3.19512394611197     -0.75423366631486
  N   0.27071395828087      4.31847065494754     -0.99924830930661
  C   1.87501374065148      1.28118632689824     -0.35928014378095
  N   3.05668168653376      1.89960546421855     -0.54785265106658
  C   3.97712258672690      0.99710634899612     -0.18547781795254
  N   5.27644438996601      1.24377125677162     -0.23843814909684
  H   5.59782861743658      2.13923254761905     -0.56381868276725
  H   5.94941631433611      0.55077352703774      0.04053728255295
  C   3.40265596002246     -0.27057109523276      0.26878912925367
  C   4.18023008049872     -1.34976108148918      0.68687835536348
  N   4.94119764212836     -2.16867099419603      1.01141328135715
  C   2.03769369408391     -0.09652779057625      0.14042728709277
  C   0.91906800997766     -0.92221143691817      0.34147877002022
  C   1.10994776424231     -2.22118221090762      0.86154558277535
  N   1.29291606508003     -3.24968637901775      1.36879525695041
  C   -0.36758402784236     -0.42896251693207      0.04699548014971
  C   -1.42162881343693     -1.31203050487402     -0.28640063987831
  C   -1.06099417922053     -2.60376973167289     -0.73667030326076
  N   -0.89379038369866     -3.65656899214210     -1.20134655032994
  C   -2.83207469567973     -1.07611206025137     -0.33360267318692
  N   -3.61488266228344     -2.07317553725891     -0.78071128534172
  H   -4.61517920198098     -1.98219125927051     -0.78376609706846
  H   -3.22599990575871     -2.96718736038757     -1.02623226214996
  N   -3.55478048646451      2.26897223720703      1.10128255850601
  H   -3.16180757355984      3.19304649163086      1.13720114192057
  H   -4.52633708726540      2.14897266675740      1.32614012843259
