28
Coordinates from ORCA-job ./opt_b97-3c_parallel
  N   -3.24006976036466     -2.92403360795863      0.71249814138515
  C   -2.65008347104427     -1.94643414099601      0.49231670139668
  C   -2.02064099590798     -0.71728982659921      0.18421707024135
  C   -2.92172054474811      0.29406353990506     -0.38479090599697
  N   -2.82222538587629      1.58742293383700     -0.25714257384446
  C   -1.78298255280521      2.25643205533553      0.25225438090762
  C   -0.45997801017791      1.89569051003608      0.34158651472499
  C   0.38438565908074      2.88224851526606      0.91042188250502
  N   1.02724045246116      3.69515129429963      1.43551017310083
  C   0.12053790793558      0.60089008959818      0.02358556814307
  C   1.46466207505544      0.48026825829517     -0.30287448628006
  C   2.22954511581228      1.58411655922388     -0.75048890185951
  N   2.90843073663606      2.41099551910351     -1.20029706520807
  C   2.12608786929110     -0.77369896566366     -0.22415014317108
  C   1.39626053949786     -1.92960673263455      0.28439369010655
  C   0.07759706706072     -1.84204186364150      0.55144321848604
  C   -0.64068968651648     -0.61561613728900      0.28360907197058
  H   -0.48211365390255     -2.71147704689903      0.86556276955208
  C   2.32872952782938     -3.04176202382471      0.33598474918302
  C   3.52354148957095     -2.58080027394667     -0.11779878800858
  C   3.41011809300791     -1.17363774464672     -0.47456944543932
  H   4.20832406838636     -0.55803444903181     -0.85797262241299
  H   4.43137151270976     -3.15668971668752     -0.20904284539737
  H   2.09177049448433     -4.03949069282291      0.66618636985395
  H   -2.02949031717304      3.25932640484611      0.57962475137091
  N   -3.99043422436546     -0.16837306535008     -1.06399074443618
  H   -4.69081604130905      0.49979082764367     -1.33367756543321
  H   -4.22879670032786     -1.14305633379331     -1.08210214693900
