30
Coordinates from ORCA-job ./opt_b97-3c_parallel
  N   -5.51246125559815     -0.58513828287245     -0.44518294521486
  C   -4.36645934622671     -0.45789794206899     -0.28073660317699
  C   -2.98528533797152     -0.29292899687787     -0.07276267856886
  C   -2.23416352370825     -1.47483469230863      0.23374658043911
  N   -0.93544716310880     -1.65791806130743      0.17568190846456
  C   0.08096502195062     -0.81357212444070      0.05550411165302
  C   0.03459045254999      0.66304216710652      0.21707394523194
  N   1.14370551778981      1.41596688954905      0.38218935055748
  C   2.31725018718965      0.84514651251174      0.23155169291305
  N   3.50035981717284      1.46686669255849      0.34447788841908
  C   4.40628732954384      0.49945638977617      0.07427295564202
  N   5.70430937494315      0.78141081765796      0.09889144480272
  H   5.99577002346515      1.71808654531785      0.32008937700661
  H   6.40110011361636      0.08857393531874     -0.10186459243757
  C   3.83522535055978     -0.79461947859786     -0.22116528582329
  C   2.49004325291955     -0.59482055964877     -0.12034131562532
  C   1.33992594156481     -1.39501755175725     -0.17408201718812
  C   1.45089137356158     -2.78884290953273     -0.36971524267018
  N   1.61645989085009     -3.92550748180742     -0.54068500335760
  H   4.36594633041561     -1.70551435092590     -0.44293002947289
  C   -1.13529433179791      1.42158284783195      0.13263897502498
  C   -0.94580766155613      2.82741253457195      0.22251976042500
  N   -0.98543566973389      3.98806669071114      0.26231196569482
  C   -2.49748161645259      1.02335414780205     -0.11549257623948
  N   -3.36907222343284      2.01197906849881     -0.38534179345493
  H   -3.07785374280512      2.97382658657791     -0.36261796507030
  H   -4.34966513493158      1.81966754957781     -0.48838173331445
  N   -2.93090106708177     -2.58490449154937      0.57165524935751
  H   -3.93311671850233     -2.61716425812352      0.52577084125488
  H   -2.42290630158529     -3.45156812604927      0.57895395292805
