28
Coordinates from ORCA-job ./opt_b97-3c_parallel
  N   -2.23515360553187     -3.52650810541501      0.60482238791130
  C   -1.91272128937600     -2.42349169182650      0.42398470226100
  C   -1.61807513448998     -1.06210168949863      0.17892342397279
  C   -2.77133022200216     -0.26390687587362     -0.28582186157436
  N   -2.93134475517170      1.01910178913787     -0.21858398849250
  C   -1.99137369624501      1.89370653764992      0.25282004948427
  N   -0.69221205645478      1.83632927693127      0.25723726451207
  C   0.10682471665366      0.76136170183134      0.06037886332772
  C   1.45452658781287      1.01815497410620     -0.18272941666821
  C   1.88185836863312      2.35014825100185     -0.37785556465889
  N   2.30757251461613      3.41625148337025     -0.55453433794871
  C   2.42391004802026     -0.02045878617350     -0.17201036962206
  C   2.00775233930556     -1.37208054640625      0.18180596788318
  C   3.20340805379952     -2.21111004995278      0.19313802626347
  C   4.24715227787529     -1.41294655249471     -0.13111569026774
  C   3.77678728367074     -0.04519788941431     -0.36037280335353
  H   4.40131031511070      0.79481458826061     -0.62053010310267
  H   5.27872645491782     -1.71884063107868     -0.21445733055437
  H   3.22142380695370     -3.26572816606661      0.41234002160436
  C   0.71110441913414     -1.65301337242529      0.41227818706303
  C   -0.30337537679565     -0.63480962296562      0.23714451395769
  H   0.39701407066677     -2.65921036791380      0.65227125128773
  N   -2.54652699003718      3.04236299669907      0.72529520523334
  H   -3.49273086897293      3.24219655757932      0.45723104392559
  H   -1.92281980519038      3.81973108186796      0.85262591324856
  N   -3.77521278984789     -0.97207929168216     -0.84524875528356
  H   -3.79647485227575     -1.97497665394223     -0.83433984048920
  H   -4.61369225587901     -0.47529036260596     -1.08654288242030
