28
Coordinates from ORCA-job ./opt_b97-3c_parallel
  N   -3.16455347485996     -3.26114745827388     -0.47861563561836
  C   -2.69278665538270     -2.20774380746999     -0.34403580885117
  C   -2.21137416088281     -0.89079962839774     -0.14548074369140
  C   -3.22397554175210      0.05298391819794      0.35212937005992
  N   -3.22906626806989      1.34700275089423      0.21555094898487
  C   -2.20394791132493      2.07047222339705     -0.29206578647830
  N   -0.90891423558717      1.85073814695789     -0.23665859290721
  C   -0.25809307232431      0.69685571614212     -0.07994082554290
  C   1.12132725145392      0.77998707884378      0.16902769148482
  C   1.68364210221845      2.05276730292241      0.41558183169457
  N   2.15638765797470      3.09205915046299      0.62314881358635
  C   1.92906126606979     -0.36790825683870      0.07057374995348
  C   1.33088790783165     -1.63433209374365     -0.35557376652255
  N   2.28846032149277     -2.63897157944830     -0.46666239808494
  C   3.41268169263146     -2.05966830354078     -0.13848153540311
  C   3.27696500771568     -0.64383912635674      0.21130093040272
  C   4.33467868793635      0.18137285369382      0.60066777563158
  N   5.25778725518345      0.81168863863301      0.92293889604117
  H   4.34969349419695     -2.59921030009243     -0.13102535707371
  C   0.00004328273947     -1.75814148575628     -0.55756778926999
  C   -0.85925296931730     -0.64357583178036     -0.29306547665294
  H   -0.41741378316182     -2.71911823334170     -0.81952504588313
  N   -2.57687391977003      3.24893918414630     -0.83482007286061
  H   -3.51598209849104      3.57045524472951     -0.68807645294530
  H   -1.85751842246703      3.92643789739594     -1.01562966240260
  N   -4.27939393595816     -0.49150198130703      0.98397677432252
  H   -5.02882181855748      0.11744889605142      1.25945977443278
  H   -4.40583349073793     -1.48304710742085      1.07095171079341
