28
Coordinates from ORCA-job ./opt_b97-3c_parallel
  N   -2.17013257303066     -2.87390887380079     -0.90242216835054
  C   -1.96699279832140     -1.81362993076880     -0.46904648726676
  C   -1.87711280191081     -0.46492444660328     -0.05279728073799
  C   -3.12331899379891      0.23867965590551     -0.11140905784901
  N   -3.39669040198253      1.42944574847637      0.42816766857030
  C   -2.50563281811340      2.34527358006852      0.73856349544443
  N   -1.23491872299727      2.49188545243534      0.39942374813074
  C   -0.36171779261893      1.54575385734203      0.07881025707538
  C   0.90931533793762      1.98238956515882     -0.31866826337829
  C   1.99232141617625      1.13204139438136     -0.29383758416739
  C   1.80858715169435     -0.25794708142994      0.21334352887143
  C   3.03717740541141     -0.84723316009364      0.29149383066269
  C   3.99865649117370      0.12453034422650     -0.17465522967691
  N   5.31348897978249     -0.11486741850469     -0.24168868162462
  H   5.95378560092647      0.57790515213653     -0.58284842301824
  H   5.69283594298292     -1.00477139244622      0.02306242392184
  C   3.35174827280369      1.32462525468075     -0.52644662413162
  H   3.82690061165574      2.22607388363109     -0.87641414434905
  H   3.26067591826628     -1.85039651612595      0.61609304214441
  C   0.50550907550876     -0.74674754804156      0.46658970469413
  C   0.39712926219699     -2.07774857786400      0.92579397754020
  N   0.41225570813792     -3.15107639721761      1.37088347108163
  C   -0.60575682292861      0.07390171778295      0.24414334013294
  H   1.02787003543146      3.04236248214269     -0.49412333033531
  H   -2.91523634441822      3.19254309023230      1.28035572464861
  N   -4.18431665119576     -0.35883264001343     -0.69344868036288
  H   -5.07976418046305      0.07288284251198     -0.55459964110065
  H   -4.15201036080589     -1.31851451940213     -0.98836629006988
