26
Coordinates from ORCA-job ./opt_b97-3c_parallel
  N   5.48252856533279      0.06249578781323     -0.12591319646116
  C   4.31766537226889      0.04000024085319     -0.09925549144594
  C   2.91445552701098      0.01062835754467     -0.06588605638923
  C   2.26581123505879     -1.24707122455072     -0.17136654641404
  N   1.01349673710075     -1.53479687890931      0.16443288571485
  C   -0.05144697867522     -0.75621174878682      0.23634995153920
  C   -1.24224535495982     -1.32678950703950      0.70187144219552
  C   -2.41362759909373     -0.66356496988856      0.42034668464754
  N   -3.69412999553144     -0.99781262121912      0.59728479498800
  C   -4.33831106617584      0.00107931890527     -0.07679621698812
  N   -5.66308820026379      0.02839614948856     -0.14696046834401
  H   -6.12029119960201      0.76908643324508     -0.64616482766792
  H   -6.20165782233468     -0.68570516054573      0.30808340602114
  N   -3.59159215585483      0.97294611771704     -0.68413419961051
  C   -2.35027832454593      0.60378559338855     -0.37851918634465
  N   -1.23250380093794      1.25071030809260     -0.66631418332256
  C   -0.09594430194921      0.68420867643168     -0.24556867113577
  N   0.94391106770189      1.48659806589520     -0.16764009301421
  C   2.21935399660576      1.23491307576189      0.10608299150330
  N   2.91294022760681      2.32126760931771      0.50984714182299
  H   3.91084939235580      2.29496230278055      0.61912899169139
  H   2.46455174878018      3.21337029653833      0.40316657720388
  H   -1.22430298735358     -2.32471024220430      1.11553616676003
  N   2.99146364300499     -2.31743963808496     -0.56795361978826
  H   3.98713981458191     -2.25500392424149     -0.68416171928873
  H   2.58722273026796     -3.22328556280254     -0.41393296247294
