29
Coordinates from ORCA-job ./opt_b97-3c_parallel
  N   4.54940889988486      2.01325135952627     -0.00694727009754
  C   3.74067356622535      1.17502794691987     -0.00669657163695
  C   2.90246555669382      0.06118044594459     -0.00658935053993
  C   3.40791621963973     -1.31272336597306     -0.00805306632280
  N   2.44761155977807     -2.23532166453495     -0.00771600767393
  C   1.28379795384201     -1.52725724266193     -0.00605061838803
  C   1.52540987461042     -0.07426576314908     -0.00528823659402
  C   0.44321569084076      0.81696453311370     -0.00360969995631
  C   0.66140544052064      2.21389680264397     -0.00299131571196
  N   0.87659897537810      3.35462785986900     -0.00239771339243
  C   -0.88530806722753      0.33971894480478     -0.00275612106839
  N   -1.82269265712363      1.27738302819745     -0.00157721579747
  C   -3.14592947329113      1.18449318908321     -0.00045786649840
  N   -4.00558450472917      0.14809402069295      0.00039458042590
  C   -3.64990949772286     -1.11822496857774      0.00003349886302
  N   -4.68562452827616     -1.99426746276448      0.00244809185068
  H   -4.55144921323326     -2.98615701759146     -0.00325860927843
  H   -5.61978397758754     -1.62870319750414     -0.00020053649937
  C   -2.35195739388401     -1.70888619261285     -0.00190002069965
  C   -1.10625550620870     -1.13263163530990     -0.00330445102361
  C   0.00957265409358     -2.00932177542844     -0.00515198930668
  H   -0.15770143182424     -3.07765451164051     -0.00564600998751
  H   -2.35273603201668     -2.79301157003445     -0.00203507983062
  N   -3.76399925675319      2.38680259231119     -0.00003986744067
  H   -3.20460541206897      3.21907372939157     -0.00057431397767
  H   -4.76422952830698      2.43806550465810      0.00088711678676
  N   4.70390912630094     -1.61603386408750     -0.00957088662551
  H   5.40331883357234     -0.89524675991293     -0.00984635994320
  H   4.98807302747321     -2.57892396097357     -0.01056728173510
