27
Coordinates from ORCA-job ./opt_b97-3c_parallel
  N   1.53943615549726      3.65470127515859     -0.33363700366312
  C   1.50779544792710      2.49565256977407     -0.23608944193208
  C   1.55932715011333      1.09065648396718     -0.09582766567270
  C   2.86321240830817      0.57808015318495      0.22432648139713
  N   3.29821316419654     -0.66222027700602      0.10337900355283
  C   2.53514092209327     -1.72283287255286     -0.15370694774154
  N   1.24529701343537     -1.95069263363051      0.08939945182693
  C   0.25013975591219     -1.08019388835619      0.16554243476501
  C   -0.99766392190611     -1.62208031753529      0.50754736351079
  C   -2.14159020809594     -0.87989122159475      0.32607360162152
  N   -3.43311256535233     -1.19502433020918      0.50335035787382
  C   -4.06237300049457     -0.06501158528270      0.08091856417632
  N   -5.38853063657018      0.03403101592766      0.09667764912434
  H   -5.94279486663422     -0.73278352241544      0.42957470567506
  H   -5.82826210322550      0.88133799099668     -0.21107312531463
  N   -3.29292141973857      0.97813261029688     -0.36719079811544
  C   -2.05783377506028      0.49396157839074     -0.22499362325982
  C   -0.82954331670672      1.08442019187793     -0.46471324737036
  C   0.34202794529445      0.38396308478078     -0.18390877999652
  H   -0.78722990633149      2.12003125206983     -0.76903819055463
  H   -1.03643512448425     -2.66465025711340      0.78492282443876
  N   3.20387485050570     -2.79476567301548     -0.64956070646390
  H   4.20696567431246     -2.77463053635488     -0.62303399096387
  H   2.74304321753266     -3.68529061623895     -0.60653498446041
  N   3.79655710842347      1.45747986059901      0.66035053464029
  H   3.63099350704872      2.44734547123100      0.63361928549611
  H   4.74770829659959      1.13780131995042      0.67573331201009
