30
Coordinates from ORCA-job ./opt_b97-3c_parallel
  N   -3.62915196820971     -3.51340449568876      0.08160188311179
  C   -3.14442958414461     -2.45314745674041      0.05606783132587
  C   -2.60293426559207     -1.17054965979574      0.02513602664530
  C   -1.24418085501289     -0.79639309649204      0.01681646288055
  C   -1.17896911915414      0.67730855866168     -0.02158247614373
  N   -0.05511048451430      1.36303942411255     -0.03710689152067
  C   1.11513714042908      0.68181351809816     -0.01765640477107
  C   2.23414699975964      1.49417458907433     -0.03026068217001
  C   3.61071351084682      1.19312737651644     -0.00652911094063
  N   4.24033433940669      0.02382190878924      0.00049934265576
  C   3.67818391914268     -1.17737730222375      0.00918353299641
  N   4.58564658003836     -2.20243846202176      0.04958927122331
  H   4.29969631297947     -3.12406757733940     -0.22505176920358
  H   5.53602576483672     -1.95192977011638     -0.15873366075504
  C   2.31915656069836     -1.55214442711671      0.03106220645254
  C   1.15976972008540     -0.79905668554374      0.01524721252840
  C   -0.06981847914615     -1.49301581224900      0.03437206243016
  H   -0.06648838659563     -2.57507317887126      0.06068649968789
  H   2.15501210274374     -2.62354816893032      0.06939680457174
  N   4.45662216697701      2.26476213239312     -0.03934868340122
  H   5.42378255714051      2.07783868575541      0.15573920880251
  H   4.11351475321974      3.17771868256887      0.19443636675061
  H   1.98115867273346      2.54623319546100     -0.06349154163052
  C   -2.49796425446003      1.16429242382843     -0.03528252085124
  C   -2.94892686940800      2.48282463279803     -0.06799020105515
  N   -3.40475408478391      3.55451584371011     -0.09434010005446
  C   -3.36904679261927      0.03010109669796     -0.00667880022230
  N   -4.69795868746953      0.09570662773274     -0.00991458189872
  H   -5.16727443292842      0.98396754132405     -0.03275944755688
  H   -5.25498957789905     -0.73999030769288      0.01219780651235
