28
Coordinates from ORCA-job ./opt_b97-3c_parallel
  N   -4.82898182723539     -2.13625479505706     -1.04850913598694
  C   -3.98027043972108     -1.40912319926089     -0.72285402471930
  C   -3.04166352264438     -0.45665040671776     -0.33139126160336
  C   -1.67319435186704     -0.56742176917171     -0.08297587709965
  N   -0.88493300743305     -1.62448557006827     -0.03481163129749
  C   0.40624559036780     -1.42836267196617      0.26819521581942
  N   1.05589137570602     -2.52101583257928      0.63941547647412
  C   2.34640734392392     -2.71964458923492      0.80640605921139
  C   3.43143454084797     -1.99998967264828      0.35126934234806
  C   3.43192756476665     -0.71095015995277     -0.19048909125497
  N   4.58310269993610     -0.25965698953630     -0.72874461384817
  H   5.39660488157425     -0.84470871961533     -0.74330574783422
  H   4.68983349971166      0.69406886900514     -1.02804891449656
  C   2.31755408936849      0.19366484375914     -0.12102201898393
  C   2.62988026960325      1.48805037331163     -0.60974160443244
  N   3.01136248280628      2.46155615604167     -1.11684767340922
  C   0.99578657993687     -0.05679517628034      0.28085358307381
  C   0.10387617135683      1.02676976169328      0.52566137786681
  C   0.54021953682529      2.30038036611155      0.95271363878904
  N   0.86368442557311      3.32857071602677      1.38327499576547
  C   -1.25254124436497      0.79628402135692      0.32344059158851
  N   -2.27537767377193      1.64756954126195      0.38482959262678
  C   -3.34941945876576      0.91752376415899     -0.02241416433517
  N   -4.54892981697387      1.46959568899253     -0.10596807832526
  H   -4.66417415902630      2.43679084902263      0.14333122380199
  H   -5.34747154361633      0.93795007274618     -0.40609977262734
  H   4.39336307241418     -2.49292237067694      0.42606041402651
  H   2.57939147580269     -3.65395184072361      1.30942743836401
