30
Coordinates from ORCA-job ./opt_b97-3c_parallel
  N   2.41037702073932      3.77908249282003      0.30087731002605
  C   2.18353471039866      2.64138868836381      0.21887493619076
  C   2.00020283902851      1.24418703156799      0.08135424612359
  C   3.18998342512503      0.54164973571928     -0.33845446459483
  N   3.48885158862753     -0.72269702324808     -0.10649519026594
  C   2.66655042641529     -1.66766219452773      0.30727320846810
  C   1.27544085275284     -1.72920173939463      0.31171429508850
  C   0.77718695806372     -2.97761692131435      0.76845618137284
  N   0.44622333607011     -3.99510704231899      1.22091234473274
  C   0.34361147837034     -0.68451793897277      0.01365471160089
  C   -0.98179315116421     -0.98150179751831     -0.29271940890075
  C   -1.39272216932041     -2.24862983545947     -0.76836915614171
  N   -1.82725269542733     -3.21456131072857     -1.24441000476194
  C   -1.99677786137064     -0.00062904851567     -0.16226764070210
  C   -1.64602534942649      1.34073391895107      0.35664213812128
  C   -0.32462613732736      1.65867881992206      0.53798821165422
  C   0.70258492773205      0.73498202866947      0.24484956220786
  H   -0.05318363521827      2.67082359323938      0.80037682101831
  C   -2.82823892085372      2.08357080919227      0.47239294603369
  C   -3.86761337509638      1.25707210648855      0.03626125845672
  N   -5.17048933352777      1.56165066618541     -0.03090288989431
  H   -5.51591710481788      2.44865681660571      0.28581046196515
  H   -5.84592704093798      0.88525155400775     -0.33381790468021
  C   -3.34151732606868     -0.03886922380214     -0.36689387655949
  H   -3.92448716455002     -0.86769816725809     -0.73508682091731
  H   -2.91728343071983      3.10380063808482      0.80656018259771
  H   3.17039909319996     -2.56867694543348      0.63823452332533
  N   4.15751701296089      1.24998063122435     -0.96267646983680
  H   4.11004440527411      2.24962228560150     -1.04138727936926
  H   5.05587105857025      0.80946262554310     -1.05158839105471
