25
Coordinates from ORCA-job ./opt_b97-3c_parallel
  N   -3.77501002500165     -2.57105275564046     -0.00813142726852
  C   -3.08845167441168     -1.63025496248078     -0.00708516854226
  C   -2.35075103954226     -0.44835953544142     -0.00624883819096
  C   -0.96894993154152     -0.23754725760175     -0.00441713533561
  C   -0.80656869451126      1.22387703425890     -0.00482561569050
  N   -1.99310350080914      1.86282953549839     -0.00679376492936
  C   -2.91616378455869      0.87711553113630     -0.00763411762917
  N   -4.22167952134174      1.14857684625850     -0.00891484419015
  H   -4.52542956778274      2.10505951394996     -0.01290444123948
  H   -4.90484012839285      0.41353005295134     -0.01287666637106
  C   0.46971210818237      1.72643679284868     -0.00333185662505
  C   1.56365161500448      0.84071720631627     -0.00141783334346
  C   2.83930623405820      1.42056944166020      0.00011255355723
  C   4.11226044885692      0.87679456383793      0.00213687053583
  C   4.48686938978098     -0.45587186704701      0.00323321592364
  C   3.65221133876331     -1.56569495157046      0.00253990416295
  C   2.27367893359921     -1.61447511668859      0.00063150475686
  C   1.28825394383145     -0.60839656392503     -0.00116844390061
  N   0.03727441341064     -1.09980373750428     -0.00267834572096
  H   1.83195432113112     -2.60275614774326      0.00044223114448
  H   4.14686383514950     -2.52900063349762      0.00364462212448
  H   5.55145827447401     -0.65555847999020      0.00481496433140
  H   4.92088240213579      1.59718279955894      0.00296188616859
  H   2.81990121364904      2.50501018798634     -0.00038210592689
  H   0.63957694436649      2.79486815606909     -0.00357672480141
