25
Coordinates from ORCA-job ./opt_b97-3c_parallel
  N   -1.97929885641194     -3.22693659361648      0.00265247363741
  C   -1.77264903031779     -2.08306082913992      0.00201643010672
  C   -1.77617564547040     -0.66206549088320      0.00060248692628
  C   -3.08831255995542     -0.07873677824655     -0.00236394073090
  N   -3.44073927926775      1.20778496757166     -0.00255082001338
  C   -2.62610804729370      2.24566079591860     -0.00171971133202
  C   -1.24605352509095      2.35923242883941     -0.00092453132569
  C   -0.24024681795227      1.39062688771036      0.00052042729467
  C   1.08740869279071      1.83599160796434      0.00118712263623
  C   2.10127766748779      0.90655569987696      0.00354797655359
  C   1.73815539871489     -0.53177834410753      0.00551136142588
  N   2.85473666748336     -1.25776695098530      0.00800195501163
  C   3.82029465247319     -0.29275126703331      0.00751877967808
  N   5.10789816821460     -0.61943663204515      0.00944415628466
  H   5.37670369490179     -1.58605133540531      0.01199035800458
  H   5.80606700657030      0.10101818866385      0.00970787548324
  N   3.43086339517190      1.02012485712828      0.00489929180900
  N   0.49309403338726     -0.97840945442785      0.00479012233496
  C   -0.49671421988675     -0.07164948616197      0.00215340556344
  H   1.29854532489415      2.89683994585236      0.00007319916068
  H   -0.89006802278668      3.38278612778319     -0.00122618509496
  H   -3.15720209409142      3.19329611808701     -0.00194086450700
  N   -4.14656149944559     -0.91619968767336     -0.00517782017253
  H   -4.04819311294581     -1.91503138912730     -0.00351862133237
  H   -5.05997872877349     -0.50189606144279     -0.00530678970221
