33
Coordinates from ORCA-job ./opt_b97-3c_parallel
  N   -5.44870759115340     -0.08334332269920      0.84112702544414
  C   -4.31882246363541     -0.03494950066405      0.56468557718926
  C   -2.95452974468139      0.04760136299637      0.22131909682637
  C   -2.40999071546750      1.34695618341362      0.21522655625530
  C   -1.07027343011902      1.69226148197166     -0.15606394789299
  C   -0.84970876563889      3.08443453785046     -0.33644965625481
  N   -0.85601471022278      4.24193287956020     -0.44255033321634
  C   0.08314113048208      0.90112038427173     -0.22406561902876
  N   1.19512264432206      1.63140300650062     -0.45748328998225
  C   2.37759817466153      1.07669408594011     -0.28220512093046
  C   2.53714997843806     -0.32189239284935      0.21948366357411
  C   3.86154125084928     -0.55045993376254      0.42076874582193
  C   4.55541250466175      0.66417058304698      0.01541330795069
  N   5.88319819745985      0.78499234203041      0.06292058189999
  H   6.46198738954596      0.03392718639008      0.39138758883351
  H   6.34200266316685      1.62724018846689     -0.23342326871160
  C   3.64269337609977      1.64230112913274     -0.41142853852603
  H   3.86627503934522      2.64603074166414     -0.72906462812539
  H   4.33158331892837     -1.45485687123862      0.77172071463510
  C   1.37296542352627     -1.10907658369379      0.32307293132724
  C   1.52370123560462     -2.43053735425796      0.79926147020615
  N   1.73880157230064     -3.46907047124773      1.27297604139044
  C   0.12962998127794     -0.55673953866933     -0.01246940609372
  C   -0.96487779572724     -1.41144295187747     -0.33081991659934
  C   -0.65077203762241     -2.69448868602239     -0.83336938480762
  N   -0.50719836550895     -3.73932514673279     -1.32510028132718
  C   -2.35389530881846     -1.16686076163728     -0.21953301521052
  N   -3.19441774504907     -2.18308862208860     -0.50641878224374
  H   -2.84134145643369     -3.10685795496551     -0.68417788218420
  H   -4.18837949071891     -2.07229986209211     -0.42417458813521
  N   -3.21897942323440      2.36806700774735      0.56316006213084
  H   -2.89436664859030      3.31710241742392      0.50065668848901
  H   -4.20086034334817      2.21991365839187      0.71406247619598
