30
Coordinates from ORCA-job ./opt_b97-3c_parallel
  N   -4.80864569016255     -2.49298158648842      1.03860531921896
  C   -4.04580133258604     -1.66790860914799      0.73295945193009
  C   -3.20624733761276     -0.62340378115302      0.35294767166516
  C   -1.80980363339237     -0.57694190561957      0.22287787600293
  C   -1.52006754966635      0.79876137579312     -0.24395222522724
  N   -2.62427953776259      1.51405721622734     -0.42699223212438
  C   -3.64156754707556      0.67629848963384     -0.05812745651566
  N   -4.89689282857400      1.09739287632685     -0.10440614762176
  H   -5.08898475619359      2.03386401284887     -0.41462632240973
  H   -5.65775113979873      0.49925362739796      0.16553445205809
  C   -0.18747536376512      1.17270058798560     -0.41310038022207
  C   0.09062283202857      2.44842416491386     -0.95370975059179
  N   0.26187903913092      3.46569416074251     -1.48554844400375
  C   0.82459812757894      0.23419974411915     -0.07775411721404
  C   2.13885360018545      0.66950096564090      0.17746711685307
  C   2.35363519463546      2.03296395531322      0.48753126098909
  N   2.66425181760198      3.09163808908143      0.85570619866309
  C   3.33770307677259     -0.12380885682252      0.26841284100047
  N   3.52973717561727     -1.37392275877444     -0.13052062620134
  C   2.61154587057331     -2.30487670533565     -0.31316843968284
  N   3.09065244953246     -3.49353648002290     -0.75859896858963
  H   4.05431430050905     -3.53305519516539     -1.03814670133608
  H   2.46774694923928     -4.18924267383337     -1.12324688345284
  C   1.23339307468130     -2.25808085276047     -0.00244582650365
  C   0.39666918592018     -1.17106139318402      0.12108707958655
  N   -0.90003579627509     -1.51195964206130      0.35087173992645
  H   0.72056409974582     -3.20730075557603      0.07960977747314
  N   4.45272774732436      0.47169274859379      0.73613814703646
  H   4.48506504823356      1.45421900362094      0.94240208535355
  H   5.31308070655550     -0.03937028029459      0.66372690553999
