32
Coordinates from ORCA-job ./opt_b97-3c_parallel
  N   -5.71833942228278     -1.52924595837111     -0.05439872278793
  C   -4.59295208655963     -1.23059632565987     -0.04039378963708
  C   -3.23417307488719     -0.86777291255455     -0.01542410817582
  C   -2.31747926393136     -1.85092398034755      0.43401095011884
  N   -1.01866960714169     -1.90821140058183      0.16545813338648
  C   -0.14071296246000     -0.96508560059315     -0.05582153199652
  N   1.08649885722614     -1.41697115318032     -0.40371277106681
  C   2.10416124688677     -0.60622956157431     -0.24448991756471
  C   1.98939737802890      0.75070659428320      0.36694252217529
  C   3.24650193284258      1.25615945216781      0.55426355405302
  C   4.16890734511552      0.28890694589301      0.02996248323720
  N   5.48853340544051      0.42286057645579      0.00583128489843
  H   6.06898242080274     -0.30253507544751     -0.38234703777837
  H   5.94033853109454      1.23638762222051      0.38204095633311
  C   3.47054642876807     -0.85082922137346     -0.46989328739363
  C   4.10420862385079     -1.97843864839878     -0.98841018653729
  N   4.72147410501615     -2.87198790005951     -1.40889886031538
  H   3.51057807006687      2.21642839105229      0.96601099910261
  C   0.69712721052969      1.27510017932382      0.53547893474270
  C   0.57342361066763      2.57288549722485      1.07624143838005
  N   0.56449937073490      3.61021295720375      1.59906947618099
  C   -0.40177017430848      0.48821905381517      0.14287848385356
  C   -1.63059909907825      1.06943082562442     -0.23587541531238
  C   -1.62026910792345      2.43955613858801     -0.58851191210686
  N   -1.71965145053115      3.53144164466841     -0.97623719854757
  C   -2.90645399778735      0.44821270498317     -0.41949655341030
  N   -3.89241957493231      1.19250316993508     -0.95390824456979
  H   -3.75161809898590      2.16751487995376     -1.15356040804491
  H   -4.82911602904181      0.83516803914387     -1.01485912268950
  N   -2.78475448219162     -2.92018511507565      1.10880637722262
  H   -2.17194365790632     -3.71045860459114      1.20261199915144
  H   -3.76735577752165     -3.05425170452605      1.26738912469803
