25
Coordinates from ORCA-job ./opt_b97-3c_parallel
  N   1.04176211073553      3.70544347620770     -0.44515861368612
  C   0.77488115422728      2.58829801056537     -0.27680287526963
  C   0.57083528806924      1.20167436987729     -0.09302583465645
  C   1.67426911671505      0.32905252052339     -0.07783493599446
  C   1.43126155767106     -1.10479448695459      0.25582979598815
  N   2.59276574188119     -1.78924242009317      0.32298503500531
  C   3.53579038081953     -0.87124509307333      0.04706322114340
  N   4.82440635084835     -1.20999377544822      0.02745236725504
  H   5.08350177205195     -2.15837506076034      0.23516913554950
  H   5.54399446348829     -0.53981214302378     -0.16652548452156
  C   3.02299664596586      0.45772734797447     -0.21096673068493
  H   3.59407663176013      1.34435083557195     -0.43262599078350
  N   0.24247330750392     -1.62008618895080      0.43653162524475
  C   -0.83088251769076     -0.78917473917998      0.29996577053534
  C   -2.03592987113251     -1.44217707598889      0.21261332775511
  C   -3.33483235980816     -0.91793023530760     -0.04492114876057
  N   -3.77224276217876      0.32356721823144      0.09550244203977
  C   -2.98965003446299      1.37032377926619      0.36888862610866
  N   -1.69907241883720      1.57569020059491      0.30019624273899
  C   -0.70443238885666      0.68581304403047      0.14747821979590
  H   -3.55574103615278      2.25929531033539      0.63091732869077
  N   -4.28005377137261     -1.81887126335568     -0.40174240321491
  H   -4.03857636411796     -2.75133402569715     -0.67842037257449
  H   -5.19296857211955     -1.46999319385423     -0.63320955620330
  H   -1.95050396100744     -2.52001819709081      0.27556171219922
