27
Coordinates from ORCA-job ./opt_b97-3c_parallel
  N   -0.82677810378588     -3.65573611268529     -0.39669709698968
  C   -0.76362400294046     -2.50365450930969     -0.27190169713884
  C   -0.71673849910447     -1.09843355365599     -0.12928412218600
  C   -1.87570674831577     -0.33038296137563     -0.08164350572232
  N   -3.15734087329890     -0.65457057874947     -0.15732814051186
  C   -3.76507067103969      0.57241421704732      0.01033888487284
  N   -5.09158480721103      0.65860180569255     -0.00394198235628
  H   -5.53720538194050      1.54677216800548      0.13177241878787
  H   -5.64075197514812     -0.17229642403290     -0.12377186794106
  N   -2.98224244701194      1.66182887031606      0.18498219391538
  C   -1.74862356657100      1.13526385917196      0.13110609731251
  N   -0.60816851367865      1.77676184672924      0.22881231942592
  C   0.53265780716934      1.04058922456943      0.13999831980210
  C   1.67752535093134      1.80899655556923      0.09896947453413
  C   3.04397781034969      1.47188107390152     -0.01506123853565
  N   3.90682073720338      2.53820674201397     -0.07776205317825
  H   4.84625235423845      2.36957362219618     -0.38921314080087
  H   3.53266211004760      3.42632115348083     -0.35919721845365
  C   3.58110757481088      0.19771105108203     -0.00001604298399
  C   2.88346480562893     -1.01242738518042      0.13626036895833
  N   1.58106417458785     -1.25289086331252      0.07526498594293
  C   0.53462248218273     -0.44582125656060      0.02507027174163
  N   3.61993634601312     -2.14543345029772      0.33959449418063
  H   4.60718319027704     -2.14569272968529      0.16225274601317
  H   3.13044933680717     -3.01221296278181      0.19792969812308
  H   4.66214097155703      0.12643318701748     -0.05081628934143
  H   1.45858754264180      2.86868805533409      0.14993976382937
