26
Coordinates from ORCA-job ./opt_b97-3c_parallel
  N   -0.17884032397123     -3.54622478119778     -0.46227854545033
  C   -0.20798515974071     -2.39239102375878     -0.33421089991044
  C   -0.33993206182964     -0.99324598768138     -0.18511679085277
  C   -1.60570038879151     -0.41325839542935     -0.09712746523211
  C   -1.67602497358762      1.06327867594288      0.16551507395341
  N   -0.60600295474710      1.85145260433252      0.22023687171347
  C   0.60275369238138      1.29537462962567      0.07678243600459
  C   1.66153450817150      2.18280958615278     -0.10270710930290
  C   3.01187918230463      1.93056547596847     -0.34221225242592
  N   3.73178579440894      0.83337832638117     -0.24330444049116
  C   3.20721677547521     -0.35711484169737      0.10891653399063
  N   4.12164653986253     -1.26432056515672      0.53063607315108
  H   3.83749258173668     -2.22642173665775      0.57402751835098
  H   5.09126280721177     -1.05277481865047      0.38111157837663
  N   1.96335907743492     -0.82318986821184      0.04061952708610
  C   0.80944859381554     -0.18534789855794     -0.03334783844411
  H   3.59173623564859      2.79899684296885     -0.64263099404639
  H   1.35996773982676      3.22161943694451     -0.13834360110367
  C   -3.00694493896884      1.40372727047871      0.29159310083324
  C   -3.75436474053309      0.20506819411811      0.10816004591592
  N   -5.08834596066801      0.12423839683455      0.15530156826745
  H   -5.65351190785151      0.93259765780121      0.33726333149960
  H   -5.56032734745999     -0.75060847067285      0.01995509327509
  C   -2.88765937325109     -0.90384032386306     -0.13300300958756
  H   -3.19283701395605     -1.92576656522847     -0.28797778487879
  H   -3.40536189502205      2.38699869591432      0.47700877060793
