28
Coordinates from ORCA-job ./opt_b97-3c_parallel
  N   -0.92675058226606     -3.63156308050946      0.12136024929998
  C   -0.88310082489833     -2.47098089705564      0.07327651643253
  C   -0.78483827038461     -1.06484586771317      0.01907345615036
  C   -1.94518111798295     -0.29447288830543      0.00182403490971
  C   -1.86009777021224      1.17513653653907     -0.05576164717490
  N   -3.10791708267704      1.67684099872723     -0.06236698817193
  C   -3.86717017748385      0.55333221080027     -0.01105675008988
  N   -5.19851387032876      0.60945937160582      0.00309482049394
  H   -5.73058858219564     -0.24010217023342      0.02205810253228
  H   -5.66247017635334      1.49666106712283     -0.04657838527234
  N   -3.22525391341130     -0.65812399356610      0.03007863712375
  C   -0.63910950163159      1.79811303658715     -0.08605193513443
  C   0.55536447897538      1.05011124473781     -0.06123483574005
  C   1.73681738646595      1.77774942988865     -0.06932675959596
  C   3.08829943554118      1.39284664052984     -0.02207264683605
  N   3.64200862177253      0.18701890226786     -0.01435546800738
  C   2.99140617736513     -0.96779408324458     -0.06814859926858
  N   3.81546977628693     -2.05444339765524     -0.16028783351466
  H   4.78928235208993     -1.89176619061207      0.02291211518022
  H   3.46076971564946     -2.96869702413506      0.05148324504601
  C   1.60926238767898     -1.24763113241636     -0.05164233269287
  C   0.49598974644552     -0.43125736712420     -0.02492635549358
  H   1.38445720152155     -2.30648963355293     -0.06068793704954
  N   4.00776266942817      2.41280061528167     -0.02505462998360
  H   3.72534651947996      3.32038586379039      0.29709171824781
  H   4.94764348135824      2.14132496027544      0.20458346402921
  H   1.58960478559671      2.85092492326242     -0.10871965942120
  H   -0.58462519423316      2.87760124020595     -0.11912975129834
