27
Coordinates from ORCA-job ./opt_b97-3c_parallel
  N   -1.46663904106244     -3.52368149095955      0.48820174929007
  C   -1.31176346987773     -2.37924588662572      0.34957061657005
  C   -1.12789139318446     -0.99129715486880      0.17623416420813
  C   -2.24993032639883     -0.16950136303382      0.05728627170818
  C   -2.06917285251041      1.28234847999567     -0.17720827050035
  N   -3.26469560871591      1.91084255620236     -0.27801787129862
  C   -4.17057488866803      0.92381591390681     -0.11793315675742
  C   -3.62073151524957     -0.36086021136706      0.08992018876017
  H   -4.15570226656229     -1.28346017754373      0.23928996074610
  H   -5.22649946223857      1.15776167374624     -0.15486927717045
  C   -0.81473298690657      1.82529650974034     -0.23702981297601
  C   0.33969190403696      1.02974537169373     -0.07785033788094
  N   1.46735829006807      1.72191696657377     -0.02929285450705
  C   2.73795712052593      1.34110273783458      0.05221414737106
  N   3.61068091752377      2.39990194896497      0.16962672261363
  H   4.49339366271320      2.24076955100240      0.62150591829888
  H   3.16832193609058      3.27495525996198      0.39280256733314
  C   3.29695207422798      0.06603714899889     -0.07603352017730
  C   2.63363706856653     -1.15067528644996     -0.08546635380496
  N   3.39026776574205     -2.29992823882632     -0.14195442585432
  H   4.33128100673098     -2.22155211136166     -0.48404560944832
  H   2.92741129151541     -3.14466973693806     -0.42707656140450
  C   1.24348999205893     -1.33958122629808      0.02987939211750
  C   0.18720307003770     -0.45221183829717      0.06953098070102
  H   0.95103554230704     -2.38205940795076      0.08420506367765
  H   4.37821464888289      0.02816903472812     -0.15446720117589
  H   -0.67579870405329      2.88909845097090     -0.35899982133945
