28
Coordinates from ORCA-job ./opt_b97-3c_parallel
  N   -1.23834876183362     -3.97817324644803     -0.22008633204431
  C   -0.90876113785502     -2.86675520930409     -0.15627789554174
  C   -0.63692380563904     -1.47963711697924     -0.09370735412063
  C   -1.71243281020984     -0.58545943614477     -0.08706485321960
  C   -1.45219513246715      0.87277719940565      0.06029108521018
  C   -2.66319955306867      1.52390219841017      0.07982236198241
  C   -3.66911877049044      0.52011374260300     -0.05396303220463
  N   -4.98337773519943      0.75759592495242     -0.07926230296265
  H   -5.34554319320205      1.68999523498556     -0.00100986257896
  H   -5.64557764628950      0.00975623791455     -0.17385794467029
  C   -3.07380165202351     -0.77232481669925     -0.15675155667938
  H   -3.59470692769349     -1.70965148147459     -0.25820853520840
  H   -2.82796244928515      2.58468527773060      0.16891649938525
  C   -0.13194467210384      1.33326287325828      0.11697412049321
  C   0.10743549302925      2.72538137243941      0.18171216348532
  N   0.22198838749085      3.87951070910136      0.24211079254856
  C   0.96546836578516      0.44724694523314      0.03539216853023
  N   2.14528147767566      1.03330935786280     -0.06768156096750
  C   3.37134475100402      0.52308392748124     -0.11005293042268
  N   4.33221367625569      1.44260614338012     -0.39457987027397
  H   4.05774690547581      2.40879481786524     -0.36060714415219
  H   5.30230067514129      1.22822121828043     -0.25949619044141
  C   3.76257534105385     -0.80897267862390      0.12709139727546
  C   2.92055710019525     -1.88635969333508      0.27403508034687
  N   1.60067385205437     -1.99608550982151      0.17272577560199
  C   0.69757507060641     -1.03645224342369      0.02922890432715
  H   3.40790427934337     -2.83598316861800      0.47550572829634
  H   4.82502271834980     -1.01526372993185      0.19028818350537
