29
Coordinates from ORCA-job ./opt_b97-3c_parallel
  N   0.34569022285474      4.47840042987505      0.25738331897110
  C   0.33652690681691      3.32111799039525      0.17222152417522
  C   0.20439367222632      1.91438645712997      0.10350213602504
  C   -1.06785437295808      1.34944831840671      0.17744482143834
  C   -1.22926974080327     -0.08974747562687     -0.10247777022734
  C   -2.59254800585838     -0.35455020856369     -0.12463410561074
  C   -3.30869420620547     -1.53502693229642     -0.32979575235707
  N   -4.03699426945310     -2.43068871331887     -0.47920227795295
  C   -3.26855483867466      0.89766457158993      0.16699431837365
  N   -4.59179220700584      1.00143634996590      0.23780060577440
  H   -5.17717341259543      0.19660817983090      0.08566347567207
  H   -5.03896817417548      1.87502586006484      0.44747316261920
  C   -2.31723847201498      1.92110673919234      0.34537432851941
  H   -2.52427410181098      2.95956492314843      0.54167600788810
  C   -0.10055976892639     -0.90466463778129     -0.25530998746153
  C   -0.29461096146540     -2.25969371137122     -0.61632577388875
  N   -0.49353092102625     -3.33468763422120     -1.00577114469147
  C   1.19514130090891     -0.36191449081885     -0.11185775612048
  C   1.34644871474574      1.11786373232438     -0.14276530134520
  N   2.43502902179645      1.80623397441927     -0.46736150831206
  C   3.68263323876051      1.43111687188356     -0.63495032826748
  C   4.29683916208948      0.23902268022481     -0.25818206863787
  C   3.66779512768592     -0.90304789692630      0.18046606429655
  C   2.29363420234786     -1.19045490769197      0.22197251659299
  C   2.03282254954275     -2.47626073667129      0.77672169664485
  N   1.92784969436213     -3.49487401515957      1.32304917416150
  H   4.30800027712148     -1.71302073641636      0.50167844272991
  H   5.37833206563605      0.21875152397206     -0.30281325642691
  H   4.32157214857501      2.20454392943964     -1.04942348617947
