27
Coordinates from ORCA-job ./opt_b97-3c_parallel
  N   1.04291950841646      3.76046067429636      0.00625130734291
  C   0.63133639984077      2.67440461692954      0.01189533103235
  C   0.11602912708919      1.35668428143017      0.01397977634094
  C   -1.25216439889074      1.16748393283990      0.00484169496736
  C   -1.74848613648385     -0.23200900799034      0.00022601597949
  N   -0.96604397177838     -1.28886937557303      0.00165530720976
  C   0.37115415558102     -1.11133466444846      0.01022615529520
  C   1.08159038742928     -2.31575506404778      0.00634440079341
  C   2.43974809059835     -2.58268420065398      0.01054339676005
  C   3.51323324081701     -1.71677771787281      0.02284336202580
  C   3.50238083179373     -0.31904331611096      0.03657486073620
  N   4.71366086308642      0.33033971431661      0.10504984428832
  H   5.53538832610394     -0.18015010736602     -0.16438641550572
  H   4.74082178179750      1.30305145304667     -0.14460082575745
  C   2.35645398012403      0.49131335707560      0.03815955164120
  C   0.99764456452901      0.22487954034179      0.01988403583184
  H   2.58863388591535      1.55072401970033      0.05599879827020
  H   4.49350022054918     -2.18064587663137      0.02903029234797
  H   2.69777973723230     -3.63380991448525      0.00073545541302
  H   0.42469131359598     -3.17530285248898     -0.00295580494675
  C   -3.15424371558072     -0.16717781258215     -0.00936779161564
  C   -4.04265454967890     -1.24768684535319     -0.01761749633855
  N   -4.79052659747968     -2.13846548049763     -0.02488474611397
  C   -3.49899110783838      1.21227793618711     -0.01049498529207
  C   -2.36133448484035      2.01724154869598     -0.00253019529113
  H   -2.34196181214289      3.09418013198344     -0.00153749357003
  H   -4.51632605778568      1.57221550835847     -0.01696146144473
