26
Coordinates from ORCA-job ./opt_b97-3c_parallel
  N   1.72789048793906      3.90772443698230     -0.00052159918854
  C   1.23214922600923      2.85916548777112     -0.00038457292763
  C   0.65834480889528      1.56325212689895     -0.00025330024508
  C   -0.71913376305368      1.45165509180539     -0.00003417161887
  C   -1.35937170943622      0.13851480104803      0.00010405307748
  C   -2.73314906521491      0.41635218411251      0.00030196029397
  C   -3.82202767777593     -0.46473449739111      0.00047978838738
  N   -4.75487928239045     -1.15760051111595      0.00064047145587
  C   -2.81538107664526      1.83865413878801      0.00026564678056
  N   -1.62679713778682      2.45275862100469      0.00007052930937
  H   -3.73412478794064      2.40633614775151      0.00038241947797
  C   -0.57733447038134     -1.01210511073578      0.00004450136614
  C   -1.21080557945392     -2.27999868491525      0.00021867827036
  N   -1.71669778766001     -3.32435229018393      0.00034779107919
  C   0.84319371320348     -0.92566686809080     -0.00018175184767
  C   1.53975541288743     -2.14645235957229     -0.00021061727581
  C   2.88156155350940     -2.46451005000535     -0.00042085794652
  C   3.97682194208869     -1.61023489342897     -0.00068292406404
  C   3.95871952045313     -0.23062757442330     -0.00077198318298
  C   2.86206365467107      0.61960704928021     -0.00061378042194
  C   1.48364463521279      0.39492627442269     -0.00035051214952
  H   3.13262932446373      1.66748822444415     -0.00071748354014
  H   4.92151424509827      0.26309776595403     -0.00098459217537
  H   4.95261244636279     -2.08044573175859     -0.00083177985773
  H   3.10288923123564     -3.52363698440259     -0.00038128404581
  H   0.89324538220919     -3.01429558473975     -0.00003845031060
