25
Coordinates from ORCA-job ./opt_b97-3c_parallel
  N   0.49206116829782      3.92514173051713      0.46759576124797
  C   0.20052991066311      2.80684382696263      0.35680899216466
  C   -0.21798585732838      1.46345735300902      0.22882884857220
  C   -1.59411159029638      1.16052406558429      0.15122751305073
  C   -2.03388792120371     -0.21162704113345     -0.17823261580235
  N   -3.39614569221593     -0.28112856263737     -0.29394484502582
  C   -3.80397920984208      0.95998973162459     -0.05407518417060
  C   -2.74796667300447      1.89406554203417      0.22537203401843
  H   -2.85013709352753      2.94543462730449      0.43523730137589
  H   -4.85933571331997      1.19715502830229     -0.07894394800351
  C   -1.13049516640941     -1.23519158982580     -0.28366427339638
  C   -1.53872506366346     -2.56646297196354     -0.53108885906952
  N   -1.87255494018815     -3.65407338617021     -0.75451424257619
  C   0.26672016586999     -0.97037233937598     -0.00076442289080
  N   0.99093936726902     -2.02211983039684      0.24219635730694
  C   2.29586822510994     -2.07935908782266      0.58458912844292
  C   3.29104389015709     -1.18195919100084      0.37403809126928
  C   3.10888829364153      0.13942436022300     -0.14770276855655
  N   1.99637746808219      0.83240896171307     -0.14920483212097
  C   0.73386689320602      0.45449498589043      0.07173284383342
  N   4.21313961095374      0.79922124048441     -0.57113517739244
  H   4.09194354727019      1.72624953408448     -0.93991706361004
  H   5.06333166298996      0.31209042801457     -0.78119281096061
  H   4.30055068355527     -1.49138657784827      0.61836808162981
  H   2.57454158773358     -3.03363102727361      1.01761880216357
