30
Coordinates from ORCA-job ./opt_b97-3c_parallel
  N   -0.13459033937055     -4.41707125507228      0.00100248617725
  C   -0.12757170438212     -3.25491601608391      0.00100112439474
  C   -0.07768253888890     -1.84330664003051      0.00097910328911
  C   1.17951011165274     -1.23728347676639      0.00205949334583
  C   1.27881699361436      0.23485711534312      0.00206025464058
  C   2.63503236927295      0.55908781647008      0.00333036224256
  C   3.29500131224017      1.78797436687764      0.00397465895755
  N   3.97591195325916      2.73309504676838      0.00471262917016
  C   3.36137983901311     -0.69057414905581      0.00410716345054
  N   4.69211783344838     -0.75491334824011      0.00535152320821
  H   5.24269683698811      0.08729077333179      0.00608809333714
  H   5.17449263555801     -1.63414260966205      0.00617259826519
  C   2.45676043719810     -1.77264584544076      0.00329449199152
  H   2.71432905120930     -2.81849217194383      0.00360597519172
  C   0.11722635098240      1.00022061991855      0.00078858706706
  C   0.18632515626578      2.41451671593872      0.00039013535686
  N   0.27084758818121      3.57182294749284      0.00001880039347
  C   -1.17396291009885      0.39877153331024     -0.00021554942884
  N   -2.16290065533183      1.27738083583751     -0.00151698400424
  C   -3.48186799964654      1.16953938261446     -0.00245352371162
  N   -4.12321301165331      2.36532525211079     -0.00271497514325
  H   -5.12138550285096      2.44240944239913     -0.00936179044777
  H   -3.56519281258381      3.20011901416492     -0.00643017192288
  C   -4.27030138589294     -0.00462270413648     -0.00229121005083
  C   -3.79999487771922     -1.28940668758048     -0.00161202416193
  C   -2.48694129298593     -1.75911372314605     -0.00072536791153
  C   -1.27525567798311     -1.07961558329803     -0.00008212311289
  H   -2.40291178150509     -2.83818522318883     -0.00039560050027
  H   -4.55671811983023     -2.06392429572277     -0.00175410671881
  H   -5.34589942106028      0.12744836009006     -0.00262935716481
