26
Coordinates from ORCA-job ./opt_b97-3c_parallel
  N   1.11301132765430      3.75718023287433      0.02466614821948
  C   0.82079853990122      2.63351915196756      0.01441893385070
  C   0.60095168336275      1.23651402640068      0.00302096498658
  C   1.69602014722552      0.36328333551586      0.00444221561789
  C   1.41842360285922     -1.09785122744332     -0.00350038352966
  N   2.56154501520797     -1.80757112480949      0.00162279187333
  C   3.53535121132285     -0.87021665463398      0.01175426413001
  N   4.81731108863683     -1.24116355781360      0.01941427530727
  H   5.04170951527443     -2.22015508014399      0.01237418344310
  H   5.56130153638157     -0.56994196650761      0.02125624969840
  C   3.05735953113628      0.48640414564680      0.01419363965078
  H   3.64834132657731      1.38734442840222      0.02221126982226
  N   0.21195530704568     -1.61346458334098     -0.01448538624409
  C   -0.85276976162998     -0.76558904077073     -0.01808252861037
  C   -2.06196080908507     -1.43614297366885     -0.03676227294977
  C   -3.39697782624182     -0.98633413340261     -0.03661414700888
  N   -4.36064831502393     -1.95600489929640     -0.09292124194290
  H   -4.10756260799616     -2.89985774148666      0.13651630686817
  H   -5.30756402359987     -1.70642024650484      0.12712579648784
  C   -3.79479093867401      0.34637427502515     -0.02574265228269
  C   -2.98157903708064      1.47419569700891     -0.01275985272859
  N   -1.67847968553870      1.63830698842106     -0.00514839955030
  C   -0.70416895582759      0.71658026876902     -0.00734927264411
  H   -3.52446360976600      2.41652996976702     -0.00449491084899
  H   -4.86115182493803      0.54251662196302     -0.03094736536237
  H   -1.92571306348411     -2.51097589303855     -0.05346461295312
