25
Coordinates from ORCA-job ./opt_b97-3c_parallel
  N   -1.37087383045386     -3.40398308027425     -1.13696306377831
  C   -1.19802841602184     -2.31166266202873     -0.78248165802874
  C   -1.04415094354639     -0.97111206555972     -0.36806771361802
  C   -2.15550356274940     -0.13814018443889     -0.18275508673551
  C   -3.51302722483147     -0.24991180060128     -0.30312386102938
  C   -4.03291696684039      0.95479513009619      0.27953858667723
  N   -3.12428242020550      1.80397777715538      0.74811990037241
  C   -1.92881752390605      1.18985378354985      0.48113223883353
  N   -0.76116634477928      1.70463527350910      0.73193582051637
  C   0.32716940625967      0.97831969815861      0.33605005016197
  N   1.41277442401629      1.67768164792702      0.19732585896243
  C   2.65279923850418      1.27783589629455     -0.16347816043658
  N   3.38368924032895      2.28821328565892     -0.69897573297369
  H   4.36375574084674      2.17290261860328     -0.87696287921545
  H   3.03849964644862      3.22223433491647     -0.56675752970354
  C   3.22718014427096      0.03669583859849      0.05288828560061
  C   2.50699983504734     -1.14069055248747      0.32121619973481
  N   3.18791052081801     -2.23477982984672      0.75655087874854
  H   2.71340904431896     -3.11740988152554      0.67728541438762
  H   4.19043548391856     -2.25021989454533      0.73183618797182
  N   1.21361062095552     -1.35517027184345      0.11974345940691
  C   0.22281839419204     -0.48731803473309      0.00144275334987
  H   4.30656700916400     -0.03757859068715     -0.01403694057394
  H   -5.08487702257864      1.19999400504501      0.35532065123077
  H   -4.08181566667667     -1.06904817264138     -0.70996611395939
