25
Coordinates from ORCA-job ./opt_b97-3c_parallel
  N   -1.02260347249756     -3.68504982502827     -0.72490354280244
  C   -0.76666060591352     -2.57722071008275     -0.48875108289497
  C   -0.55496975076076     -1.20559915665815     -0.22839998890535
  C   -1.64212938018249     -0.32590184242548     -0.15475357304862
  C   -1.38146996280892      1.06643983592167      0.33361820798635
  N   -2.52977183274091      1.73558268032001      0.51045809826945
  C   -3.49097577503522      0.85449592766216      0.14129388652805
  N   -4.77101949385019      1.21424065183564      0.19844488999500
  H   -5.00354233241510      2.13709251331136      0.52141278968154
  H   -5.50836419293695      0.59183481344406     -0.07361102757048
  C   -2.99832796762637     -0.42782525965882     -0.28430992170710
  H   -3.58058126962206     -1.28150564418671     -0.58912449671238
  N   -0.17983203119180      1.57324178533065      0.50739519640143
  C   0.87498179780047      0.77473494963319      0.25268219222226
  N   2.00702538215479      1.41383815702615      0.06201392173059
  C   3.24760920080000      0.95143397013806     -0.10298745615317
  N   4.09944183414166      1.86136468516606     -0.63100686224281
  H   3.78386616120901      2.81136970725563     -0.71024549685475
  H   5.07897962882674      1.66991673240765     -0.72052573946623
  C   3.74380568075893     -0.30133162406155      0.29593999993053
  C   2.96346975988237     -1.41131154883070      0.54363810462601
  N   1.67340292945910     -1.61791787790659      0.34014878150182
  C   0.72295192297772     -0.72181843539038      0.10017627658126
  H   3.49044087156135     -2.29479585312510      0.89313518113417
  H   4.81689354960645     -0.41860177659395      0.39048923367184
