31
Coordinates from ORCA-job ./opt_b97-3c_parallel
  N   -5.77745178533693      0.00041277444195     -0.01314834375672
  C   -4.61201861443577      0.00030001670093     -0.00964593693462
  C   -3.21537183812915      0.00015035601276     -0.00505863998097
  C   -2.40015070731651     -1.16587909856308      0.01195074280848
  N   -2.87093756676143     -2.46124774395998     -0.05902762705024
  H   -3.83507769339506     -2.56937450168173      0.21461661555970
  H   -2.28680276882213     -3.14571802444016      0.39248239751575
  C   -1.06415167700813     -0.73882501907152      0.00254437274687
  C   -1.06397859969171      0.73877987307960      0.00167006636105
  C   -2.39977005188782      1.16606456121138     -0.01651048704284
  N   -2.87094418321274      2.46139909338894      0.05171757459055
  H   -2.28323050923211      3.14633594540223     -0.39437721052472
  H   -3.83300175849658      2.56997472384893     -0.22896599190722
  C   0.13477249116091      1.41071603086383      0.02550607113176
  C   1.36866894512117      0.73875314990105      0.02518711874965
  C   2.51571967344788      1.53498569248143      0.05529492374229
  C   3.86752698451954      1.25464704293178      0.05248358605449
  C   4.50095161973486     -0.00093128861552      0.01836874593240
  N   5.86006352065645     -0.00225145530467      0.05995052660660
  H   6.36093258758809     -0.84773585320726     -0.14239295468831
  H   6.36101037554939      0.85378810884247     -0.09140127582316
  C   3.86735746147694     -1.25614235882081     -0.02203210272393
  C   2.51544729386849     -1.53625555358869     -0.02765460397907
  C   1.36858346375696     -0.73955869043580     -0.00669966496226
  C   0.13445263644702     -1.41112712679466     -0.01404872413881
  H   0.15064458825215     -2.49505411162598     -0.04241713089998
  H   2.29891985240280     -2.59954890048136     -0.05740815800587
  H   4.52659446102872     -2.11576643405056     -0.03774590055652
  H   4.52689513454466      2.11361771101723      0.08715428077638
  H   2.29942102142769      2.59842468122030      0.08134399048691
  H   0.15123100744239      2.49465670999700      0.05349705901235
