26
Coordinates from ORCA-job ./opt_b97-3c_parallel
  N   -0.36754471452503     -3.83839966721092     -1.28431843266203
  C   -0.11133469898894     -2.75830489577071     -0.94710570359609
  C   0.24038681653914     -1.44650672085840     -0.55514328621958
  C   1.53357753274546     -1.06634628913279     -0.34740991275109
  C   1.79108880558225      0.30009372343440      0.19291230889952
  N   0.85915487399449      1.25036716448435      0.30624147142889
  C   -0.39265358348254      0.92916772641214      0.03191109863572
  N   -1.24798890150501      1.92284113349889     -0.20485255637997
  C   -2.56360880061897      1.83182657245001     -0.34521794307347
  N   -3.14343588741757      2.85525957293020     -1.00416861989459
  H   -4.14118241877319      2.95215105912016     -0.96799877693466
  H   -2.58097369482547      3.65817891740479     -1.21932889636121
  N   -3.43368079914406      0.93032185664784      0.16062271584666
  C   -3.06229389121218     -0.28612068015916      0.47550302609298
  N   -3.87849230386756     -1.01949925110921      1.24967461829967
  H   -4.75996630016697     -0.63076658044105      1.53125391604945
  H   -3.73392520611160     -2.01070740498003      1.30953407810570
  N   -1.97742653432210     -0.99872659912929      0.02987320291923
  C   -0.80169590106524     -0.50495451376008     -0.17579155107333
  C   3.14941218348310      0.36988220337274      0.44582383586569
  C   3.86476502630371      1.45210212920367      0.96270500748931
  N   4.48990872759120      2.33472270302764      1.39196117034248
  C   3.73501975145361     -0.91044990635717      0.04883371244187
  C   2.78039293306639     -1.75712693287900     -0.43114151232727
  H   2.91945844120553     -2.76464167536582     -0.78415407329240
  H   4.78814787596034     -1.12748534483272      0.13857257644854
