29
Coordinates from ORCA-job ./opt_b97-3c_parallel
  N   -0.50800780141958     -4.04024549550437      0.80799585256113
  C   -0.51703867958399     -2.89902792975592      0.59905703812929
  C   -0.53803768205050     -1.50633000597042      0.35836315526633
  C   -1.73499160474570     -0.82437777078859      0.23637451114688
  C   -1.72677889985365      0.58832164491593     -0.19236430599293
  C   -3.04058132136154      0.93505671558067     -0.34587376525816
  C   -3.77140414539668     -0.25455455746154      0.01194577381363
  N   -5.09596878134850     -0.38248649006841      0.02490179082921
  H   -5.49860944255710     -1.26310100580205      0.29493057727621
  H   -5.70386053934475      0.37303839672820     -0.22929855510414
  N   -2.98347222599723     -1.29978882327144      0.35543419066373
  H   -3.44557050172119      1.88628379586274     -0.64756851092976
  C   -0.50788368114013      1.28957089747844     -0.31759263744140
  C   -0.58981808836941      2.62887873943443     -0.75953409891573
  N   -0.76590200283727      3.68734248244211     -1.20472805964363
  C   0.70497525202453      0.64459184089055     -0.04269292623788
  C   0.70160645939811     -0.83669717568989      0.08503813196811
  N   1.71607725317697     -1.64747217059448     -0.09393667929663
  C   3.01376926500867     -1.44511783865311     -0.29822050366273
  N   3.66165830320397     -2.51558537785777     -0.81542925731916
  H   4.66143005530696     -2.53058957292470     -0.88862305802839
  H   3.16961210844010     -3.39159554162935     -0.83972244725100
  C   3.74405993640373     -0.29621630001775      0.04966858047729
  C   3.20786325272886      0.93041906147220      0.34109813786459
  C   1.87940365967732      1.37753860862166      0.28203786877708
  C   1.73926933910461      2.72638011877502      0.70584613829434
  N   1.71019185650362      3.80523071718646      1.13536421844028
  H   3.91814689769898      1.68810781676708      0.64325475383347
  H   4.82174965034296     -0.38761324346073      0.10285264863799
