28
Coordinates from ORCA-job ./opt_b97-3c_parallel
  N   -0.42438798136098     -4.17456702298662      0.81079131215621
  C   -0.40229522397215     -3.03193628833538      0.60471641389997
  C   -0.46213888381541     -1.64101695029386      0.37226164805517
  C   -1.70359353350409     -1.00349375647104      0.26768806197005
  C   -1.76423418474517      0.39772557121577     -0.21582377814431
  N   -3.01502627084447      0.80294858836659     -0.39310399102135
  C   -3.77471023601236     -0.27943041875462     -0.02640255512670
  N   -5.09722775054402     -0.18150640694822     -0.08434524039943
  H   -5.69864853167285     -0.93977367957327      0.17918993961985
  H   -5.50779074516980      0.68277232309649     -0.39395647322671
  C   -3.00976606658306     -1.41195644583169      0.38278385721753
  H   -3.37804319530993     -2.37716320083286      0.68560156636712
  C   -0.59119423814685      1.14219898277681     -0.39307200381376
  C   -0.70323805485568      2.45566321000889     -0.90331386455417
  N   -0.83473772014062      3.49211855599091     -1.40835852479862
  C   0.65140675069867      0.55491432150394     -0.06321533262726
  C   1.76284786902457      1.33243128195422      0.30510074076634
  C   1.59626850613267      2.70692694293448      0.62159752887246
  N   1.56617564491265      3.81190132639410      0.97682581644808
  C   3.08610499899885      0.88587774056192      0.58787687849154
  N   3.69480625615601     -0.22790805839902      0.30669506149547
  C   3.06286250447724     -1.28141906797182     -0.26408026063419
  N   1.80520959933894     -1.65836965593151     -0.11967089193510
  C   0.72218325626589     -0.92917214876226      0.09048601169582
  N   3.86290115445605     -2.11359308143278     -0.95388916708345
  H   4.85635047433226     -1.98130541997885     -0.89645104178091
  H   3.50371805138463     -3.01204313891228     -1.22277844350744
  H   3.70813538259161      1.62068190241733      1.08827697839962
