22
Coordinates from ORCA-job ./opt_b97-3c_parallel
  N   0.89294979071764      3.55519330096274     -0.00201035835731
  C   0.68253961308149      2.41428839292371     -0.00126762395640
  C   0.55413632128114      1.00300171572053     -0.00058473595329
  C   1.71887326361798      0.21329707971945     -0.00105092455831
  C   1.60106569646129     -1.25635690541331      0.00116281442668
  N   2.83458033042426     -1.84465791590576      0.00095216930756
  C   3.68813369616417     -0.81913193939614     -0.00130276532646
  C   3.06804057715592      0.46964143234772     -0.00264465848961
  H   3.55928567760524      1.42811353176358     -0.00445621547360
  H   4.75421941551306     -1.00260580096642     -0.00197485258842
  C   0.38052234005187     -1.86172750455968      0.00280656321790
  C   -0.81435365186518     -1.09636557025587      0.00160049364789
  N   -1.90917610045796     -1.83029788945420      0.00010396945239
  C   -3.18767055547045     -1.42498145477374     -0.00127422140766
  C   -3.72031769069305     -0.15963610253803      0.00171593516175
  C   -3.02050285108185      1.06093853770791      0.00510721855159
  N   -1.73422640136765      1.29213867209080      0.00418495176742
  C   -0.71589989155738      0.41728802505258      0.00147377414953
  H   -3.62980939508410      1.95982163158252      0.00822176780075
  H   -4.80208439604950     -0.09009589656455      0.00147352881628
  H   -3.89195817510155     -2.24989858163994     -0.00427927132617
  H   0.28342827255460     -2.93711367360392      0.00365064923747
