31
Coordinates from ORCA-job ./opt_b97-3c_parallel
  N   -0.65050207645667     -4.05430426478504      0.01509238954724
  C   -0.61264012275780     -2.89142880634937      0.01786349619170
  C   -0.60031587719968     -1.48165750272407      0.01607664479633
  C   -1.83168798254767     -0.81860097837685      0.01897884611373
  C   -1.86432933030767      0.65355394058502      0.02002927827599
  N   -3.11935619693915      1.12101764548258      0.02805478407041
  C   -3.89210051029102      0.00169983973135      0.03014947055265
  N   -5.22302746970505      0.12329087733240      0.03929037089332
  H   -5.82730742318277     -0.67541398918554      0.02869946469621
  H   -5.62677984513289      1.04265581699803      0.03394087917199
  C   -3.14972155076219     -1.21714117450019      0.02428650009280
  H   -3.53879284723180     -2.22137908932831      0.02625524099232
  C   -0.68056723164744      1.37137526894373      0.01177269092274
  C   -0.74492716278595      2.78251384559947      0.01397963294653
  N   -0.75784002514686      3.94440227491074      0.01963591444702
  C   0.59657269507611      0.70541804363249     -0.00323550267206
  C   1.70851853704478      1.52362075269650     -0.04276612335670
  C   3.09560533281528      1.28295877239480     -0.04618294243493
  C   3.73286875133607      0.05497600791870     -0.00138051709816
  C   3.15680588118768     -1.21434967597075      0.03646444779575
  N   4.02673943757772     -2.28481504294780      0.13210331691370
  H   4.96211609379378     -2.14328607285332     -0.20648352964835
  H   3.65651189432095     -3.18843102050365     -0.10599314071079
  C   1.79650030851560     -1.52870829207480      0.04058256907080
  C   0.63146699612069     -0.76652459239142      0.01825348034836
  H   1.60964996931727     -2.59530437575158      0.07090736757409
  H   4.81755478397971      0.08217189263275      0.00332324030942
  N   3.88725444011310      2.40881282709826     -0.14808386986512
  H   4.84502015381136      2.32692832764232      0.14366507911105
  H   3.46793550647681      3.28621256356999      0.10515869310185
  H   1.46785279020767      2.57860551157370     -0.07838665514989
