31
Coordinates from ORCA-job ./opt_b97-3c_parallel
  N   3.01916906769001      3.61449367188488      0.56108428826161
  C   2.59603571429295      2.55382180790165      0.34640812279653
  C   2.19094580101962      1.22570251231198      0.05586718425879
  C   3.25031043651414      0.41553258023136     -0.51069067191468
  C   3.27802128530827     -0.95920814421677     -0.53419058105292
  C   2.36142024987497     -1.88624637897806     -0.00648136269447
  N   2.82524067221803     -3.15164423346286      0.15137919776979
  H   3.81248985742011     -3.31673776429296      0.20406207092691
  H   2.23235913060451     -3.85606180675603      0.55616375933310
  C   1.01022558995033     -1.62043673518761      0.29074391569716
  C   0.33640309001382     -2.68030287902640      0.93231655764786
  N   -0.09165022917924     -3.58576999900913      1.52566218260116
  C   0.26125121342422     -0.42208125951229      0.02550000828299
  C   0.84454099205506      0.90536465976083      0.22117847872056
  C   -0.03454100810866      1.99864330782719      0.52637041402331
  C   -1.37264394747973      1.85360960386147      0.40385817061130
  C   -1.95517499400143      0.59719461335339     -0.03583024051922
  C   -3.30870620711283      0.85588918308855     -0.16739076638293
  C   -4.35795767227696      0.02498063811567     -0.56861796461595
  N   -5.27654234209154     -0.60970861533378     -0.89461727454638
  C   -3.46391718497891      2.25666222764357      0.22748176469441
  N   -2.34226082222212      2.84093724068257      0.55668311241979
  H   -4.40933022460340      2.78009802765074      0.25225960886332
  C   -1.11729569524425     -0.52586747289961     -0.20481052752979
  C   -1.67926059642598     -1.74415468304315     -0.65215516633820
  N   -2.14555221119707     -2.71115831705241     -1.09385656259030
  H   0.37143136780172      2.97312007058386      0.75161764046106
  H   4.18471988060616     -1.39688123794870     -0.93555379895056
  N   4.30869546879680      1.08692932626351     -1.04039502191887
  H   5.15476591529536      0.58741113826290     -1.24187140895800
  H   4.41008741043642      2.07508658789586     -0.89141193145821
