24
Coordinates from ORCA-job ./opt_b97-3c_parallel
  N   1.75402527638464      3.35790584174248      0.67107390807885
  C   1.47003013728116      2.24738724115219      0.48739509046451
  C   1.06546654884163      0.91236697997406      0.25848973914780
  C   2.02595684621685     -0.10236851284896      0.17039413421798
  C   1.61392738745918     -1.48640865774329     -0.18961369422432
  C   2.81946999426717     -2.21024268819209     -0.22815538354173
  C   3.80485019813541     -1.28690424911835      0.08196991671926
  N   3.33873260081903     -0.01164583541212      0.32814142290448
  H   4.86696901746600     -1.47665350729196      0.14520262363596
  H   2.94832456095445     -3.25633062042932     -0.44840859472156
  C   0.29037169416907     -1.79876735188596     -0.34047653810263
  C   -0.70608184279008     -0.81597992069439     -0.14552290975436
  N   -1.93835151576455     -1.27811058042550     -0.06281463975854
  C   -3.08958945511538     -0.61351621212445      0.07687724873897
  N   -3.42503132363351      0.61162377638708     -0.35400982968224
  C   -2.55595509482620      1.58768268261295     -0.50519398548219
  C   -1.19203154021351      1.64935811376119     -0.20976005840715
  C   -0.29662553377936      0.61675081563322      0.03344839307461
  H   -0.76815750498404      2.64498012800124     -0.25384718265705
  H   -2.99114700798630      2.50531504999833     -0.88810391837509
  N   -4.09922652000729     -1.32797584513613      0.62275870784986
  H   -3.97560668700867     -2.31807263175879      0.73202570526433
  H   -5.03144104770594     -0.96526906101465      0.53627294990743
  H   -0.04831297707985     -2.81078498468670     -0.51169730849723
