25
Coordinates from ORCA-job ./opt_b97-3c_parallel
  N   -0.56159291557320     -3.56541560437986     -0.21395863297159
  C   -0.63381764267565     -2.40743020627723     -0.15710132822782
  C   -0.72976237008731     -0.99656108358723     -0.09132786005541
  C   -1.96680523331025     -0.40197449350071     -0.04136288353539
  C   -2.00950817545402      1.09439521499515      0.05194336462799
  N   -0.92717893353774      1.86480799280883      0.03318910940137
  C   0.27972627373068      1.30854247770118     -0.03239717189511
  N   1.27017945462086      2.21268151627096     -0.11941053895827
  C   2.56898191352886      2.04412558638697     -0.13414516062415
  C   3.38684287116287      0.91935201501956     -0.00463708277877
  C   2.99631551143383     -0.40406688756770      0.09824765738733
  N   3.94480617920590     -1.37551465457114      0.27945428557582
  H   3.70047236312332     -2.33034794881817      0.08675373948325
  H   4.90509583486310     -1.14532249725028      0.09821615372977
  C   1.65308905254633     -0.85081735125618      0.04425611527729
  C   0.45961312844430     -0.18221285626483     -0.04217950833750
  H   1.55900729749157     -1.93104065438413      0.07749354812407
  H   4.45258278123791      1.12138534514892      0.00560369194796
  H   3.11693360473961      2.97695876608270     -0.24825397282955
  C   -3.34188373612940      1.45577302040534      0.11584017302200
  C   -4.10481382359148      0.25904035875417      0.06105781614744
  C   -3.28723242166665     -0.86680119798381     -0.03876607988500
  H   -3.60630262667601     -1.89405058505982     -0.09598293765101
  H   -5.18466939529105      0.22663455496086      0.09110918111388
  H   -3.72288131653634      2.46031856466648      0.18643883281137
