25
Coordinates from ORCA-job ./opt_b97-3c_parallel
  N   1.06669788202885      3.84984616180641     -0.15733159257656
  C   0.88324573557472      2.70547742192104     -0.10322537781198
  C   0.53986074380876      1.33411619794261     -0.05478291718877
  C   -0.80499391702975      0.95317673879714     -0.08308012265486
  C   -1.11098474951782     -0.49246577880401      0.09226619748723
  N   -0.19686018101957     -1.44208612860879      0.16413118235182
  C   1.09480263459092     -1.07704963270622      0.09900008381250
  C   1.99715070571999     -2.11567354393457     -0.10886024797013
  C   3.37808593194610     -2.06644051701620     -0.31596226071417
  N   4.24917937168678     -1.10284455065298     -0.08744801786965
  C   3.91000360445823      0.12260296172878      0.33035607414398
  N   2.77510221871141      0.78456449092041      0.29878084901781
  C   1.53154060194107      0.34841771239189      0.09330426266960
  H   4.75157298708664      0.71206035860243      0.67845472808239
  H   3.82367741853133     -2.98574441103089     -0.68462603639670
  H   1.53070255383864     -3.08725560182789     -0.21187967742975
  C   -2.50197962165631     -0.62080021435790      0.12754192260045
  C   -3.28787647967610     -1.76411738128662      0.26388876045880
  N   -4.02296497229561     -2.66055529784702      0.37141904085246
  C   -3.04082121050733      0.70315909280949     -0.03316691316005
  N   -4.34300060112891      0.96799807634712     -0.05073531224379
  H   -4.68577434815016      1.90432831097741     -0.16440184776218
  H   -5.01790507984099      0.22882347952564      0.05300803306698
  C   -1.98777134241274      1.64993209663315     -0.16174343924413
  H   -2.10646515958819      2.71483381147030     -0.27614392962103
