27
Coordinates from ORCA-job ./opt_b97-3c_parallel
  N   -0.28541992352274     -3.48194483655794      0.01291411826786
  C   -0.37248502850089     -2.32343320270350      0.01821533362387
  C   -0.43240669424855     -0.91195160652036      0.02101347083727
  C   -1.66987093158168     -0.28988463861405      0.01615042132931
  C   -1.75474109585221      1.18386817398092      0.01502227875581
  C   -3.10393263826410      1.46750243429738      0.01430703528156
  C   -3.74522657864458      0.18895202069787      0.01531667119717
  N   -5.06379105123202     -0.03821469109582      0.00220616859992
  H   -5.72763390247264      0.70741593255375      0.08392764706662
  H   -5.38934366102681     -0.98641171030279      0.06355095695163
  N   -2.88508473666073     -0.85869195383535      0.01556923661027
  H   -3.58283150916906      2.43286625026310      0.00967368178603
  C   -0.58671168649283      1.93690260446889      0.01033746119975
  C   0.66646591222418      1.33955070031813      0.01134156293492
  C   1.79152580818684      2.19021742718994     -0.00007662746316
  C   3.14315814889504      1.93407875775310     -0.00802705392319
  N   3.85004346511433      0.80290188276494     -0.00553853183831
  C   3.32559781405064     -0.41086136979830      0.02764472133096
  N   4.24646291042607     -1.42020977071195      0.08649470541184
  H   3.98099673491751     -2.35737852107453     -0.15412296643254
  H   5.19781557032551     -1.15624056122607     -0.09974163588801
  C   1.96606537901326     -0.82710477476054      0.04268263149651
  C   0.77855746897205     -0.13421552392885      0.02149236362951
  H   1.85129678467315     -1.90368543733415      0.07321062388493
  H   3.77343496649837      2.81805261639683     -0.02593357479744
  H   1.54837846794481      3.24651558453230     -0.00938001955213
  H   -0.64198096057304      3.01790468544701      0.00508596149913
