32
Coordinates from ORCA-job ./opt_b97-3c_parallel
  N   -0.48048745829982     -4.23516582660587      0.00106551356961
  C   -0.29501980716940     -3.08725201914713      0.01127507588729
  C   -0.04215311863254     -1.69956223827359      0.01986098744381
  C   1.28807153201064     -1.28089293129932      0.00998420987798
  C   1.59624278880025      0.16278433335646      0.00615839679647
  C   2.98884182327187      0.29037641419675     -0.00716092106946
  C   3.81359219364987      1.41386047152948     -0.01503504086727
  N   4.61205331208340      2.26276221990439     -0.02254208408250
  C   3.52578132766185     -1.04794612731125     -0.01071887175772
  N   4.83308640749445     -1.30606266367037     -0.02279750555845
  H   5.18133349457005     -2.24638079598096     -0.02175694264407
  H   5.50080254021568     -0.55353371439256     -0.02690426622369
  C   2.47551273082363     -1.99150010993650     -0.00072736849466
  H   2.58263212384250     -3.06326862009012     -0.00195949826751
  C   0.56007530450248      1.08443175845982      0.01449652887781
  C   0.85675797972142      2.46563465951157     -0.00020762149160
  N   1.05720852924167      3.61007799284587     -0.01488831600706
  C   -0.81539527797726      0.66959599975755      0.02612165692582
  C   -1.77135217159474      1.66211456044870      0.04530373861070
  C   -3.18553804613372      1.62532878614401      0.03306698327100
  N   -4.02333403314683      0.60006705771554      0.00531811506989
  C   -3.67736302248429     -0.68221144244834      0.03146895886726
  N   -4.74474950657578     -1.53122988795199      0.07282516119530
  H   -5.64709345334290     -1.12881482602857     -0.10573259281346
  H   -4.62572759463792     -2.50303219150642     -0.14484583252518
  C   -2.40651395409141     -1.28999795210699      0.04508012777689
  C   -1.12409058430140     -0.77187308781456      0.02772862340988
  H   -2.44853544047728     -2.37136336072037      0.06733534530578
  N   -3.80324069744410      2.83877691302891      0.07262948816997
  H   -3.29177348273760      3.67967561494477     -0.11936980615724
  H   -4.79461372961191      2.85189531722771     -0.08453226947201
  H   -1.37215623643084      2.66724122851340      0.06540020557642
