25
Coordinates from ORCA-job ./opt_b97-3c_parallel
  N   -0.31146611660788     -3.90078152501943      0.69852509814998
  C   0.03986265159661     -2.80710431193436      0.53276237967164
  C   0.38347649750919     -1.45097667135765      0.32737972225971
  C   1.68207747301310     -1.08322132444304      0.11306464065540
  N   2.78749314171524     -1.89152983968987      0.07851994030705
  C   3.78891842186919     -1.05582137608405     -0.17273919814262
  C   3.39787754412110      0.31961467278757     -0.31278495067565
  C   2.03952815654413      0.32415590513327     -0.13304199471621
  C   1.04622153300266      1.32257708392662     -0.06250396163902
  C   1.42565416285681      2.68206837722037     -0.16079226031264
  N   1.82444758833291      3.76695380055003     -0.26249643734620
  C   -0.28896044450181      0.98581479903526      0.16009144690036
  N   -1.13069668715655      2.01045668391293      0.40781373296009
  C   -2.43098721182815      2.01889131565864      0.47178883657590
  N   -3.37354638032301      1.13740307983390      0.09878508692164
  C   -3.14593742776190     -0.13561772319341     -0.13296692034418
  N   -4.18571240104909     -0.85037739690102     -0.60686703186023
  H   -4.10590084946324     -1.81865576954666     -0.85349515737540
  H   -5.04854777713137     -0.37093159671971     -0.79423630756324
  C   -1.94577948082240     -0.88981021841287      0.12639424394344
  C   -0.66511168055152     -0.44473478200759      0.23703417305843
  H   -2.08452850511999     -1.96362650272768      0.16326661395628
  H   -2.84962243123734      2.95722359002115      0.82104727029999
  H   4.04082223682615      1.16147753947780     -0.50687306734336
  H   4.80007174236717     -1.43135828382021     -0.25502769444115
