25
Coordinates from ORCA-job ./opt_b97-3c_parallel
  N   -1.02564985965755     -3.64625889861789      0.57384979722581
  C   -0.75505483901855     -2.53435417353052      0.37657961656960
  C   -0.53726565951594     -1.15504984435436      0.16350062631705
  C   -1.65173286176411     -0.28184115685935      0.12770274298118
  C   -1.47143509039580      1.13433737161506     -0.27311902600218
  N   -2.65999197013559      1.78720032859363     -0.31514632744872
  C   -3.56189440264614      0.85747746886367      0.03205545011474
  N   -4.86112053587397      1.15058003240164      0.09686964450490
  H   -5.16603034976905      2.07853538948902     -0.13901465374686
  H   -5.54757236952379      0.45820015242079      0.32863058876185
  C   -2.98984614946499     -0.44517664300352      0.32040043695916
  H   -3.51782221121028     -1.33863784306124      0.61008875863449
  C   -0.21966234211837      1.63571584883503     -0.49279564484645
  C   0.91477030513273      0.81598863926510     -0.28141863145230
  N   2.06257258023867      1.44282754077926     -0.15780969010673
  C   3.26900238083535      0.88379642305721      0.08780427388528
  N   4.13452547038529      1.71906196011239      0.69479171343015
  H   3.88568238517294      2.68480066690504      0.80179899368452
  H   5.09570766891348      1.44114398086053      0.77147547232579
  N   3.76036445241406     -0.30079360782392     -0.26889074725512
  C   2.98053437884224     -1.33680135650192     -0.56279720107229
  N   1.69985459279468     -1.56849462690483     -0.38397433773425
  C   0.73652798242219     -0.67281426156202     -0.12455238182742
  H   3.52604783899438     -2.18642497415031     -0.96242434825353
  H   -0.06074089595186      2.68518095707147     -0.69120866144867
