25
Coordinates from ORCA-job ./opt_b97-3c_parallel
  N   -1.91920299477113     -3.46897107487847     -0.03988751946045
  C   -1.53754340068764     -2.37192887538389     -0.02387554011283
  C   -1.10883941052754     -1.02428369725614     -0.00507930064831
  C   -2.05936397592545     -0.00723915328409     -0.00323854700838
  C   -1.56714590823324      1.39695054817002      0.01226237234711
  N   -2.60427845630377      2.27002456075259      0.00936450217644
  C   -3.69397744963438      1.48458352449640     -0.00649975248449
  C   -3.43447797808955      0.09024221872433     -0.01508161624069
  H   -4.15839146954211     -0.70730561761959     -0.02788866670074
  H   -4.67695285557086      1.93689833282098     -0.01178330059009
  N   -0.30275536625402      1.73039821194935      0.02667229561703
  C   0.63054399744178      0.73506002993186      0.02640017809488
  C   1.91886295753772      1.25182552443448      0.04538964074603
  C   3.20041815626731      0.67851491603936      0.04137218589274
  N   4.26167197690311      1.55231352537989      0.10774013097524
  H   4.09522597983165      2.50818557638351     -0.15209376334949
  H   5.16608904902496      1.21037133968873     -0.16387839023087
  C   3.47580279195214     -0.68822726481206      0.02864356753153
  C   2.57905885345599     -1.74006610372450      0.01418840590452
  C   1.19729994613627     -1.74058659271894      0.00607508888692
  C   0.26956088733254     -0.69437006803228      0.00919791744252
  H   0.75587490195058     -2.72937641994150     -0.00648376664639
  H   3.03116226646298     -2.72372899495500      0.00499398049128
  H   4.52495803423222     -0.96260356700036      0.03506694766443
  H   1.89777015161040      2.33516367893533      0.06540455230210
