27
Coordinates from ORCA-job ./opt_b97-3c_parallel
  N   -5.41184576447147      0.00302687763179     -0.10888239035595
  C   -4.24709145108475     -0.00183903526508     -0.08658217898294
  C   -2.85150620001887     -0.00955591122300     -0.05618224202937
  C   -2.05247824108164     -1.15325597270866      0.03013535772939
  N   -2.48587770220342     -2.43316823997448      0.16945156014778
  H   -1.86179924316256     -3.16821309061268     -0.11208233968422
  H   -3.45269033543653     -2.61543859707478     -0.04234415902776
  C   -0.68282502602026     -0.71525783256738      0.03223818926000
  C   -0.68451621144072      0.74664200373135     -0.06770069910380
  C   -2.00862295803273      1.16525824551770     -0.10876636819935
  N   -2.50256782878743      2.42724815229875     -0.26051322646059
  H   -3.45927411210048      2.57705323654851      0.01362686061417
  H   -1.89300465933535      3.18978382179403     -0.02274634487523
  C   0.53427455664485      1.41522031153952     -0.01569786093226
  C   1.73806338848893      0.73323833761848      0.02569085819161
  C   2.92062061986365      1.48909026056810      0.30097182459250
  N   4.18041261862723      1.18512487903947      0.23112137185019
  C   4.62814467477660     -0.00435685614992     -0.29170025740864
  N   4.14509639843867     -1.19862593108982     -0.27218874494728
  C   2.86991085889324     -1.52089490408131      0.08858340303504
  C   1.73987517670708     -0.73889424889688      0.07224430215632
  C   0.47952515131713     -1.40679036550468      0.13281560086896
  H   0.48764501496734     -2.48639346929591      0.22660453559751
  H   2.73120948509683     -2.58121464615860      0.27231815402553
  H   5.60181285682814      0.09529014095901     -0.76544154010853
  H   2.73031384464512      2.50776808577862      0.64179150441470
  H   0.56246296968138      2.49905706247828      0.01349978083275
