28
Coordinates from ORCA-job ./opt_b97-3c_parallel
  N   0.15753876537345      3.56396064909091      0.00920106899541
  C   0.22216131384336      2.40234343388903      0.01250155640821
  C   0.33624223903744      0.99612213689889      0.01177295888504
  C   1.62686750358544      0.44399382360318      0.00091720393115
  C   1.78603099394165     -1.01901403115843     -0.00592891347864
  N   3.08773308290971     -1.37073317391246     -0.01506374808756
  C   3.75350676202477     -0.19034598829730     -0.01506218512539
  N   5.09749847327334     -0.18167286852555     -0.05172479242942
  H   5.60408238901328      0.66276819475742      0.13565212916805
  H   5.57397058446654     -1.05474733241534      0.08916505749781
  C   2.90371467323956      0.95767565932244     -0.00753818149619
  H   3.20398989493372      1.99234673731706     -0.01220179533273
  C   0.67729483462331     -1.82552630086499     -0.00062651598043
  C   -0.62729697659656     -1.29314643579602      0.00977469051101
  C   -1.66577504814160     -2.22478193670668      0.00127656911700
  C   -3.04716814851461     -2.08169992522063      0.00605322350093
  C   -3.81833036115149     -0.94493477246262      0.02836411716760
  C   -3.38136798503667      0.38753895389027      0.04918560602840
  N   -4.35758156578105      1.36548842977618      0.13489669061827
  H   -4.08572784899186      2.29718664578212     -0.12755635575832
  H   -5.27244017021483      1.11838883826511     -0.19963631465331
  C   -2.05671139424120      0.82052851890710      0.04735923930389
  C   -0.82030899237958      0.17154907811367      0.02309585755297
  H   -1.96691870392023      1.90090995148944      0.06778226925467
  H   -4.89229376263154     -1.09442992137431      0.04054430273026
  H   -3.59945487841290     -3.01337473500903     -0.00913832863432
  H   -1.32812352779145     -3.25425783766362     -0.01292857218905
  H   0.80458081514005     -2.89958471949588     -0.00941894820528
