29
Coordinates from ORCA-job ./opt_b97-3c_parallel
  N   -0.10110893691759     -4.38338053923604     -0.50337467296925
  C   -0.27739511982482     -3.24280126888244     -0.37655799849091
  C   -0.49415930598712     -1.85365775782511     -0.21952723725152
  C   -1.76523421565386     -1.36315297847635     -0.12941956722632
  C   -1.92994569207641      0.09242252894754      0.08868248232232
  N   -0.91170008207321      0.94491192231531      0.14025800230240
  C   0.33228658236415      0.49094353041276      0.03039213043819
  C   1.31741620426537      1.51475212914526     -0.04873537187826
  C   0.81590927751977      2.83724359052577     -0.08766197933638
  N   0.57774231739318      3.97406105352673     -0.14469314538026
  C   2.73255684656928      1.41562323082233     -0.13153819177553
  N   3.51396873269146      0.34849659616550      0.07862453354177
  C   3.15711135799465     -0.90795580809898      0.16398492218888
  N   4.16253276274095     -1.77828038277597      0.42669486362367
  H   3.97941648789211     -2.73487098176213      0.66370678920599
  H   5.06900636824320     -1.40169382858556      0.63868371031665
  C   1.87618058458837     -1.51234081649429     -0.04316518023146
  C   0.63775152181310     -0.94814547027947     -0.08969117294084
  H   1.90755741114715     -2.59127607748617     -0.13192487961323
  N   3.43848756360148      2.53463101321657     -0.40120070056412
  H   2.99421348931110      3.43472162230831     -0.44648694992031
  H   4.43430270850499      2.49031530333845     -0.28902236250795
  C   -3.29348511889616      0.33058629634113      0.19230103644957
  C   -3.93466970058722      1.55338356601909      0.40696714929697
  N   -4.50137632336667      2.55332200925835      0.58666452017901
  C   -3.96277173843002     -0.94956085599630      0.03247385050562
  C   -3.05635015657841     -1.95738031369273     -0.16236713905295
  H   -3.26925172486036     -3.00294640378294     -0.30684635501433
  H   -5.03521365028844     -1.06175773746861      0.06815564958255
