23
Coordinates from ORCA-job ./opt_b97-3c_parallel
  N   -2.94554635213053     -3.41549846273803     -0.81400703936910
  C   -2.42071030051221     -2.40314533326661     -0.58314202880668
  C   -1.89543880921684     -1.14145538895535     -0.30007966029211
  C   -0.56987380247780     -0.73436716571375     -0.15990443002141
  C   -0.56974712877035      0.73446431137224      0.15951429779139
  C   -1.89520959573606      1.14160969246230      0.30044352758005
  C   -2.42028971732712      2.40330699285949      0.58381711320669
  N   -2.94494343230154      3.41565234138352      0.81513070330588
  C   -2.71316561021642      0.00009190723201      0.00040467530627
  N   -4.03197050203989      0.00016002883904      0.00073843165135
  H   -4.54816324249648     -0.83405064553588     -0.22667911244287
  H   -4.54795462607516      0.83437213552214      0.22862526739234
  N   0.53933491002808      1.45350608680943      0.14932716766053
  C   1.65563349936278      0.75165895788279     -0.07529188502854
  N   2.70216719822412      1.37967658976418     -0.58112348396863
  C   3.92311113453929      0.89614068634671     -0.73423165991237
  N   4.56943881908919     -0.00030485469984     -0.00238625116899
  C   3.92370095112391     -0.89648591506287      0.73035754534167
  N   2.70250547183956     -1.37971841723117      0.57861384355757
  C   1.65565376348137     -0.75169612087618      0.07343304166474
  N   0.53916057400229     -1.45348487157245     -0.15036511589427
  H   4.51954039375197     -1.39966539303779      1.48453029765217
  H   4.51822053005776      1.39933120671595     -1.48897970190575
