21
Coordinates from ORCA-job ./opt_b97-3c_parallel
  N   -0.84373393656137     -3.55133339074788      0.35105198972114
  C   -0.66632774510539     -2.40990460931242      0.24152664164701
  C   -0.53280586791200     -1.00720532333441      0.12629046011543
  C   -1.69489170214535     -0.18986357327334      0.11064725189629
  C   -1.58204042183282      1.23748943088043     -0.24592027738655
  N   -2.83396763705357      1.82974452092541     -0.30383114824856
  C   -3.66825580858678      0.85326283320308     -0.01207819421081
  C   -3.03092076248227     -0.42107047813428      0.25518632784793
  H   -3.52028374293344     -1.34840144185219      0.50303382175973
  H   -4.73485190424217      1.03353319730746      0.01442267928713
  C   -0.37904239774993      1.83200955443644     -0.42060232049863
  C   0.80302457785950      1.06800391834421     -0.15104313989579
  N   1.88040941278434      1.74904693479313      0.12322579238082
  C   3.06083774557977      1.22134342967958      0.53655684497998
  N   3.65131047579486      0.11629884885227      0.20059417050622
  C   3.00798102638085     -0.89153206723584     -0.44263069325233
  N   1.75157482823013     -1.21832833314806     -0.43014420563312
  C   0.70904826726437     -0.43121500446986     -0.07642247431168
  H   3.66833690132749     -1.59527965388318     -0.93696067305238
  H   3.63016446974402      1.89672932807988      1.16771027682110
  H   -0.27975400315969      2.89232065988965     -0.60011079157242
