29
Coordinates from ORCA-job ./opt_b97-3c_parallel
  N   -1.92877277853088     -3.77597783253027      1.15255428908158
  C   -1.72650930997575     -2.67280286365122      0.85399497429001
  C   -1.40632606511130     -1.34525258886746      0.48779729485999
  C   -2.39120551251255     -0.42661167723670      0.27987044998382
  C   -2.06559049586375      0.91344719738964     -0.22168997960181
  C   -3.27524208645769      1.52483542732388     -0.41621467574688
  C   -4.25642373732643      0.55110500662991     -0.01100049978666
  N   -3.74984445536433     -0.60265611419702      0.39807843603304
  H   -5.32781339672034      0.70083452438206     -0.02163137122471
  H   -3.46116393895908      2.52169564102647     -0.77908810560029
  C   -0.71454001305170      1.30549039486710     -0.36512484114945
  C   -0.46883448148350      2.60146054221649     -0.87254752180699
  N   -0.35831915564381      3.64504648776633     -1.37016190428555
  C   0.31980427021590      0.42158500128335     -0.04460937062180
  C   1.63806992367524      0.91513067064748      0.22029738005080
  C   1.77172286732224      2.24614256744311      0.66715140403573
  N   2.00460414937714      3.29503122340965      1.11513919911536
  C   2.85999457739975      0.19795225866245      0.18067194279857
  N   3.07746605691303     -1.02497943247196     -0.33016642672537
  C   2.20428873233389     -1.98986491959968     -0.43129686292299
  N   2.64664196971306     -3.14129135547529     -0.98812574313961
  H   3.56533052512138     -3.14625885342226     -1.39472693613296
  H   2.00620996590145     -3.86242724458093     -1.26232646114974
  C   0.85272606651131     -2.02583638619885      0.05481566993468
  C   -0.01734674906541     -0.98965785454926      0.19518313412568
  H   0.46148043948291     -3.01911480619584      0.23164839447343
  N   3.98724137084602      0.79265678303410      0.62303333874083
  H   3.99886021606307      1.76221408452489      0.88659089570390
  H   4.85826211639670      0.33556062646744      0.42659936906553
