27
Coordinates from ORCA-job ./opt_b97-3c_parallel
  N   -1.42598671768315     -3.84611919518159      0.00113516026019
  C   -1.06782118817421     -2.74095566214787      0.00056540105257
  C   -0.69206910402900     -1.37747276226656     -0.00015545606940
  C   -1.70078303294684     -0.41634380091068      0.00023095227189
  C   -1.27885007227748      1.01188932800538     -0.00048054927273
  N   -0.00718920155102      1.38849090442966     -0.00143775590023
  C   0.95676541941124      0.46275596883377     -0.00181261369760
  C   2.26116582453766      1.02961850968709     -0.00276539985412
  C   2.29618724198634      2.45802882072073     -0.00302178600179
  N   2.47040198104643      3.60518998051226     -0.00298570235823
  C   3.52680118736563      0.44057344813402     -0.00346398891964
  C   3.86698471698184     -0.89822118212599     -0.00335807136306
  C   3.01313541615838     -1.98892585619337     -0.00253271389422
  C   1.63040349729928     -2.00703610003240     -0.00160248236858
  C   0.67322290772229     -0.98731041173423     -0.00122493620999
  H   1.20727823467129     -3.00433507963915     -0.00106164394953
  H   3.48559705434689     -2.96292217908673     -0.00260333534748
  H   4.92759624181946     -1.11577211960932     -0.00399929579858
  H   4.35044771616192      1.14103786563378     -0.00415683715290
  C   -2.41817388545898      1.79289835245691      0.00015357094023
  C   -3.52386198860549      0.90096645946126      0.00132991652396
  N   -4.81130787123816      1.27129858426655      0.00146650977516
  H   -5.07473061326590      2.23882543590247      0.00565378788240
  H   -5.54792113073149      0.59083512197445      0.00652906566565
  C   -3.07474093146209     -0.45614087159357      0.00130447372389
  H   -3.70447421612905     -1.33111157253066      0.00193063701560
  H   -2.45795323505583      2.86917065633375     -0.00021291505344
