31
Coordinates from ORCA-job ./opt_b97-3c_parallel
  N   -0.75488992168897     -4.24087446658565      0.00433464002891
  C   -0.41964988840490     -3.12838345986208     -0.00022843119716
  C   0.00010535965551     -1.77827730025686     -0.00092433737079
  C   1.35907623302086     -1.51865229452078      0.00252801156735
  C   1.84114293623961     -0.12298737412679     -0.00154332075849
  C   3.24527782814015     -0.17812461083877     -0.00418517327345
  C   4.16212648242755      0.87952076160512     -0.00795025679327
  N   4.96256440250794      1.72367706788376     -0.01135908889093
  C   3.60450602405169     -1.55814344273860     -0.00013086666358
  C   2.47561622430166     -2.36523102122159      0.00441141263425
  H   2.45341955650868     -3.44166105966771      0.00676003207130
  H   4.62635636237277     -1.90504231564798     -0.00068459006441
  C   0.92212226848774      0.91508215163672      0.00221552444065
  C   1.37607781514443      2.25541436508635     -0.00122185313929
  N   1.68685063533926      3.37443536699043     -0.00822030184101
  C   -0.49340931816783      0.66850031533994      0.01030535261729
  C   -1.31474447947146      1.78288653066871      0.04000831628398
  C   -2.70655725659073      1.96266977131096      0.04117136108361
  C   -3.67955580362729      0.96914898530934      0.00128442900450
  C   -3.51487307773654     -0.40830513916224     -0.03987383724564
  N   -4.65026393421562     -1.18227674176089     -0.13702009913673
  H   -5.52265258834280     -0.77156926246894      0.14399265711369
  H   -4.57033561029176     -2.15544445541374      0.09932752666353
  C   -2.29759129874016     -1.11198823194022     -0.03799795952290
  C   -0.97189479291882     -0.72323077670286     -0.00852231814218
  H   -2.43372512109448     -2.18603416811706     -0.06853958650277
  H   -4.70678858328510      1.31903247076550      0.00320031367997
  N   -3.14039730734869      3.26601943749176      0.13777062935303
  H   -2.48201326073844      3.99257587216672     -0.08148114583963
  H   -4.07955649562090      3.47241583070143     -0.15181111487165
  H   -0.77234915891336      2.71895900447604      0.07019148531178
