27
Coordinates from ORCA-job ./opt_b97-3c_parallel
  N   1.67022107309039      3.90975148931207      0.59453746359631
  C   1.31538587332324      2.81683346951060      0.43202134982446
  C   0.86078457482193      1.49195570781963      0.23784028452190
  C   1.78671189685774      0.46410776866234      0.16529952017225
  C   1.33554060948655     -0.90126905613139     -0.14819975081465
  C   2.47077901594806     -1.65527064379759     -0.24518517399187
  C   3.54111919785593     -0.73023887323102      0.02990056798289
  N   3.11917416196285      0.53502367601743      0.27212726243476
  N   4.83832379566901     -1.01958300359095      0.06006334766638
  H   5.17965631908288     -1.94535834236368     -0.11863150194788
  H   5.49754494454588     -0.28984109200933      0.26947117979498
  H   2.55387440745687     -2.70706584529523     -0.46123281660693
  C   -0.04503801549383     -1.18666179945354     -0.24132669967921
  C   -0.38457577887926     -2.51757764529803     -0.58171894010869
  N   -0.53087106994000     -3.61083685982129     -0.94377894081310
  C   -0.98723423688753     -0.17348933503660     -0.05879680641282
  C   -2.36155822267207     -0.49937370987761      0.20073178632490
  C   -2.65291258590506     -1.78231869257832      0.74333749413495
  N   -2.96711592592165     -2.76597166718460      1.27399192951446
  C   -3.50560154767687      0.28491306295469      0.06688650043599
  N   -3.67944530165183      1.52051636466813     -0.39276679459290
  C   -2.70873531079919      2.39555151037688     -0.54016352399227
  C   -1.34996480220893      2.31732526629096     -0.21837777094091
  C   -0.52896678941995      1.22437869692911      0.02376609446321
  H   -0.84324020565050      3.27354682719778     -0.24959326781496
  H   -3.03549480507692      3.35822326994786     -0.92127329222326
  H   -4.42984585435254     -0.21008638103046      0.34277478498762
