33
Coordinates from ORCA-job ./opt_b97-3c_parallel
  N   -5.41573785870254     -0.00096449948193      0.00408461506381
  C   -4.25086824322128     -0.00068236873605      0.00356125275588
  C   -2.85260965291644     -0.00046537235566      0.00249993409757
  C   -2.03213610551393      1.15745014471428     -0.06430132128174
  N   -2.45545263728091      2.50780862249244     -0.11835438085768
  H   -3.38708655848673      2.58089091905788     -0.50564791366481
  H   -2.48744740367845      2.92581009778542      0.80475671232954
  C   -0.70182950960490      0.72451618215787     -0.05821489344607
  C   -0.70155226622623     -0.72479611618127      0.05974172251401
  C   -2.03183582980152     -1.15808903190282      0.06796661501670
  N   -2.45467544487007     -2.50850668749781      0.12282552824875
  H   -3.38637491021775     -2.58169293283177      0.50993850389283
  H   -2.48616877429242     -2.92723629061699     -0.79997222956875
  C   0.49588706863562     -1.44630883495798      0.11725374948176
  N   0.44974984322145     -2.81955765217962      0.21991937736775
  H   -0.47603782625913     -3.16892147580922      0.44140319502726
  H   1.17158508051794     -3.24034050724894      0.77899538293297
  C   1.72430332773134     -0.75007254921414     -0.02541802376266
  C   2.84774833228559     -1.49751431119532     -0.34339168721420
  C   4.20054350910219     -1.16883952163661     -0.43263821583075
  C   4.80732428487685      0.00053778994273     -0.00411600847137
  C   4.20105869883309      1.16979284490668      0.42585584863296
  C   2.84810363984732      1.49806989984472      0.33946648633644
  C   1.72414649081327      0.75042538309718      0.02330251586644
  C   0.49545716560200      1.44635177799067     -0.11717094981453
  N   0.44871441569695      2.81964982236062     -0.21910809522689
  H   -0.47761290321330      3.16877773379450     -0.43877914590174
  H   1.16941512378933      3.24095282954603     -0.77926346625881
  H   2.63768042104485      2.53428634552140      0.58198759239326
  H   4.85655204926233      1.95953362946668      0.76860562771487
  H   5.89243856839531      0.00073707500956     -0.00534375748998
  H   4.85551347543172     -1.95847551595647     -0.77661714471478
  H   2.63720436449773     -2.53389949548529     -0.58504929716813
