24
Coordinates from ORCA-job ./opt_b97-3c_parallel
  N   -1.19315655147072     -3.82449825059469      0.00153926857635
  C   -0.88275373190184     -2.70724038214184      0.00120313532886
  C   -0.38802202093255     -1.37862703771996      0.00063942460661
  C   0.97270361105610     -1.14095508727387      0.00022847660592
  C   1.42311355538078      0.27417797435366     -0.00030167840285
  N   0.60981430401269      1.31241719989660     -0.00046924711194
  C   -0.71508218189757      1.09000613955214     -0.00011123641040
  C   -1.47756413654543      2.26233238903392     -0.00049072491069
  C   -2.85025344532503      2.45283071557528     -0.00030015703321
  C   -3.83570059649313      1.48184712649461      0.00043339952973
  C   -3.67161644952853      0.09824157806397      0.00109432461868
  N   -2.57543132736577     -0.64065563431191      0.00106509613573
  C   -1.29841925547533     -0.28286265674905      0.00053170957955
  H   -4.58412032431525     -0.48886564936817      0.00167743742192
  H   -4.86305660684904      1.82642136965672      0.00052116861800
  H   -3.18330692778231      3.48224037344731     -0.00074567134417
  H   -0.86164327997270      3.15259215853774     -0.00102620364497
  C   2.82721618304144      0.25448982577307     -0.00057560328635
  C   3.68005443356830      1.36414691125313     -0.00107570055806
  N   4.39771751781096      2.27874581650258     -0.00144821244546
  C   3.22027111671226     -1.11471398973702     -0.00024979410270
  C   2.10911038703987     -1.95423418301102      0.00023606715719
  H   2.12140853322820     -3.03111672775317      0.00056348993534
  H   4.24896298090459     -1.44003483578002     -0.00036191576309
