32
Coordinates from ORCA-job ./opt_b97-3c_parallel
  N   5.78179485917706      0.10279689726761     -0.01589403203684
  C   4.61647737423743      0.12830133932262     -0.02890982842358
  C   3.22071327017174      0.14766435762084     -0.03714412458965
  C   2.40451083348413      1.31864586268586     -0.02639684528554
  N   2.88562858503707      2.60933778987462     -0.06582900853000
  H   3.83543289983177      2.71456300902273      0.25366846991023
  H   2.28060368557755      3.30261847984062      0.34177589253617
  C   1.06813709734412      0.89965236855033     -0.06453362667610
  C   1.05804198022946     -0.56032582235323     -0.05713980866476
  C   2.39205545210813     -1.00019100851490     -0.05850336657907
  N   2.82080244876145     -2.33345410732436     -0.04748087103005
  H   2.55835582632972     -2.83387796707670     -0.88679935031415
  H   3.82220859907904     -2.40762884046296      0.06713378794781
  C   -0.13340214053612     -1.26215950038911      0.07283492952627
  N   -0.09033774815251     -2.62664050976754      0.23147565672882
  H   0.81617262408386     -2.97746994373147      0.51030549655195
  H   -0.84324085826175     -3.03789424792115      0.75419373806364
  C   -1.38653137445333     -0.55012223150954      0.00569923055733
  C   -2.53364373547236     -1.31063315192046     -0.14916352870541
  N   -3.84978695828385     -1.06539668995961     -0.18016229999103
  C   -4.42027495940117      0.12585480956303     -0.02592150115749
  N   -5.76893559632208      0.06774847447279      0.03003486240500
  H   -6.20437483624008     -0.82404294513380     -0.12390195291695
  H   -6.33676701598362      0.89295801617252      0.05377642168722
  C   -3.83718782498050      1.41869573226930      0.07180432917536
  C   -2.50386741784261      1.72617967578096      0.06343021862411
  C   -1.34962471353469      0.92748393567130      0.01585960638392
  C   -0.12925972651130      1.59174941743857     -0.01499692783351
  H   -0.13692000649791      2.67543895339493      0.00060362513540
  H   -2.29378588575134      2.79013446368989      0.10169283459025
  H   -4.52704141020763      2.25090021953290      0.13957073179503
  H   -2.35375251411966     -2.36721058960648     -0.31716535088448
