27
Coordinates from ORCA-job ./opt_b97-3c_parallel
  N   -1.25306301861834     -4.11319784506593     -0.27316350906999
  C   -0.99794498067557     -2.98132654507968     -0.22232626329472
  C   -0.65100259756217     -1.61280742272642     -0.15997075899601
  C   0.70771786178752     -1.27194324005422     -0.11847113779125
  C   1.10423139301580      0.14412165258772      0.03862262232460
  C   2.49588302423160      0.18027169667605      0.10215175605257
  C   3.39038911309906      1.24202990395296      0.24953405879120
  N   4.24811835565410      2.01941920551024      0.37145504105035
  C   2.95374431670785     -1.18251295601566     -0.01667354235661
  N   4.23686480731750     -1.52541880485742      0.00513409605421
  H   4.52691874469090     -2.48231430020252     -0.08009454780884
  H   4.95126148854717     -0.82311980128948      0.10712793974339
  C   1.84319775780733     -2.05258499036003     -0.15313167076788
  H   1.88440998778390     -3.12426527748007     -0.25354228656562
  C   0.12964566858407      1.13845777081545      0.03047927163042
  C   0.49410339678151      2.50601540767702      0.07274262389006
  N   0.83363730435659      3.61393774755607      0.11825131951742
  C   -1.24270067623837      0.80654193427170     -0.09393917400376
  N   -2.05617746273785      1.83025514696329     -0.31532691351433
  C   -3.37370220107189      1.89190297960766     -0.35872879635043
  N   -4.31764296143306      1.06576331760306      0.08657878180899
  C   -4.09715008783663     -0.20633590046123      0.37789816530656
  C   -2.96289786465549     -0.99544940102444      0.19819861429341
  C   -1.64727870706892     -0.62170523706692     -0.06841631653345
  H   -3.12590897431913     -2.05458871639361      0.35855695360194
  H   -4.96564296050621     -0.72606009552036      0.77040106852430
  H   -3.75351931264132      2.83121047297683     -0.74573437603649
