25
Coordinates from ORCA-job ./opt_b97-3c_parallel
  N   -1.07564264500081     -3.62964415505395     -0.62437340459583
  C   -0.89419408743227     -2.49624172086663     -0.44688906708314
  C   -0.63983123160964     -1.12451393405680     -0.23066535487609
  C   -1.70487393256761     -0.22699362084485     -0.11712121167419
  N   -3.01186847126021     -0.42668978934818     -0.22680505372196
  C   -3.51442920600597      0.83027976353358      0.01664793311324
  N   -4.82607655499117      1.04199849475552     -0.00266101111993
  H   -5.45040746446256      0.27910680169436     -0.18878312999655
  H   -5.18832184186951      1.95972287102423      0.17830311970414
  N   -2.63221345293807      1.82991320316608      0.27224669254769
  C   -1.45277928350866      1.19556674268475      0.19682282977269
  C   -0.16788672584888      1.67188539570568      0.31440319016684
  C   0.92246859234563      0.80983313889379      0.12722838148273
  N   2.10676852924290      1.40579042972222      0.04118037202516
  C   3.32598087646024      0.88994877005830     -0.05495108457750
  N   3.81125199805167     -0.30725352121139      0.33958997688020
  C   3.05604458059850     -1.37483549793548      0.43886580462491
  C   1.70189425890151     -1.58284661909865      0.15818955396276
  C   0.68395492245740     -0.65955289392757     -0.02892804877070
  H   1.40014436271885     -2.62245371350949      0.17625380445170
  H   3.59371768208431     -2.25820142144844      0.77183213261418
  N   4.26831713096121      1.73280621997069     -0.53581199458179
  H   4.02975546927523      2.70166161215994     -0.64234663750866
  H   5.23221928586154      1.47772378589758     -0.42187964638691
  H   0.03329948383636      2.72280605043475      0.45625379034700
