27
Coordinates from ORCA-job ./opt_b97-3c_parallel
  N   -0.28144658222322     -3.55264753900544      0.26493334718338
  C   -0.32280789684838     -2.39146814984703      0.21305046866657
  C   -0.39638534648928     -0.98368290264101      0.14701484895257
  C   -1.65157660302466     -0.38866884777821      0.07668081629088
  C   -1.74423580896651      1.09365862183821     -0.01807616893440
  C   -3.07780031226628      1.42279300891008     -0.07286344344288
  C   -3.81782748505427      0.19347610237388     -0.01421679361394
  N   -5.15697889395941      0.12027945452975     -0.05511967604764
  H   -5.62946551399646     -0.75814949576246      0.04992350991746
  H   -5.72070633243249      0.94931508454061     -0.05049082314579
  C   -2.93775105195048     -0.90651833248865      0.07658920243877
  H   -3.21701022416160     -1.94551337066407      0.13395183498156
  H   -3.50419767472709      2.41036130691347     -0.14636384235805
  C   -0.58028887193958      1.85610317444664     -0.01288423897288
  C   0.67902405417657      1.28718560751374      0.06037727113009
  N   1.70106798164391      2.17057027393359      0.12718384956265
  C   2.99189689856743      1.95594584256847      0.14579763619720
  N   3.77291257733126      0.87431796814832      0.02374186051903
  C   3.33025921156308     -0.36914721850995     -0.03477196771561
  N   4.30293881912912     -1.31511366503857     -0.15472276149654
  H   5.23058447932338     -0.98272515945909     -0.34978336285264
  H   4.07718912264702     -2.25253071332952     -0.43043438196900
  C   1.99987093435169     -0.86547861637742      0.06358722395059
  C   0.80194048379684     -0.19991788276300      0.09886598252189
  H   1.93025168255409     -1.94670200799904      0.08814803513500
  H   3.57444442408889      2.86711552727086      0.24956061739929
  H   -0.62518283943351      2.93564510207589     -0.03970385969746
