25
Coordinates from ORCA-job ./opt_b97-3c_parallel
  N   -1.07711928281459     -3.58737848750527      0.78025739530401
  C   -0.90438545360440     -2.45831843901091      0.57146201680450
  C   -0.65205065152054     -1.09250659365296      0.31569042658082
  C   -1.69128657555727     -0.18502731625482      0.19821181194917
  N   -3.00560005864721     -0.36936546598553      0.31739003532053
  C   -3.53763506125411      0.84528300603511     -0.01451724943249
  N   -4.86063022305463      0.99229054635890     -0.00142966122354
  H   -5.43329615185939      0.20484994964282      0.24826523411733
  H   -5.30128831532748      1.85771535215477     -0.24939144667178
  C   -2.57230917981869      1.84380882670152     -0.34554728133321
  C   -1.35808510781028      1.21269028601124     -0.20618355803994
  N   -0.11484807868256      1.68659049143053     -0.31407509357941
  C   0.89081870347054      0.84063095505809     -0.11403675644184
  N   2.08595494081569      1.41341740987527      0.02429800564915
  C   3.29156770279239      0.88714675729001      0.05101984744479
  N   3.76009952137871     -0.27085020446374     -0.49252972164387
  C   3.00211989750882     -1.32759869120991     -0.59739603803959
  C   1.66850524122539     -1.55195678235410     -0.21040876847078
  C   0.67197662161222     -0.63338063201951      0.04585309537453
  H   1.37060790288758     -2.59333212473816     -0.21741855576824
  H   3.50308573463947     -2.18862521587953     -1.03241091127927
  N   4.25822145079932      1.64735237960547      0.61263069526223
  H   4.03745296882557      2.60207930924033      0.83082561097286
  H   5.21470931854310      1.39837160112855      0.43836156650254
  H   -2.75462273674743      2.86878712844172     -0.61931419435883
