29
Coordinates from ORCA-job ./opt_b97-3c_parallel
  N   -5.43872116224643     -0.13376568710377      0.04956786245326
  C   -4.27372365681351     -0.14296616078166      0.03240885348220
  C   -2.87784684643685     -0.14534531944425      0.01503882825282
  C   -2.04280732925051     -1.31267778080376      0.05747150722668
  N   -2.52019537503037     -2.59529093156525      0.07442626490098
  H   -1.90488915249756     -3.29626311172426      0.44910705044962
  H   -3.47160056759827     -2.70834229229625      0.38330488891150
  C   -0.71412198094109     -0.88665864878530     -0.01176035304719
  C   -0.71631112852062      0.57088588342493     -0.05382583858973
  C   -2.06666609704222      1.00044421781877     -0.06696440968928
  N   -2.50257416690229      2.31756922340298     -0.11114557380100
  H   -2.12812164081614      2.84195873817352     -0.88950246386953
  H   -3.50920784687168      2.40049340115343     -0.10180446076302
  C   0.45841891372869      1.29149533143870      0.02721503499244
  N   0.42944402015264      2.65975333139303      0.13497532790916
  H   -0.44610672932649      3.03422849149683      0.47032837985274
  H   1.22262761365966      3.08289055534011      0.58440055389153
  C   1.72559442698966      0.58418254696128     -0.00633498693542
  C   2.87999876273215      1.31553037316858     -0.10995839694174
  N   4.16278912174687      0.96000357329383      0.18733057439908
  C   4.63194585049781     -0.23987009372623      0.22247723189479
  N   4.14286083940736     -1.43381567412689     -0.22594245666675
  C   2.86218163231038     -1.68266587478731     -0.27595502452357
  C   1.70296101247741     -0.89661435256912     -0.02652335918835
  C   0.49197084907132     -1.56939404060766     -0.03727647661881
  H   0.50827068124527     -2.65101340487416     -0.10143719665731
  H   2.63533865399469     -2.71027220044482     -0.55958767060329
  H   5.62687995613426     -0.33064819350703      0.65271715871706
  H   2.80069789554663      2.36304773958105     -0.37541058853758
