29
Coordinates from ORCA-job ./opt_b97-3c_parallel
  N   -0.44759316401214     -4.19643792787563      0.71601388300354
  C   -0.45647934789263     -3.04695578784506      0.54107633112969
  C   -0.49533415928012     -1.65305493467147      0.33192394447469
  C   -1.73453833043243     -1.02772045724382      0.22745035498247
  C   -1.78991504131319      0.39885002031501     -0.15179881451975
  N   -3.03394497476495      0.81552801991712     -0.31687268797832
  C   -3.80430541776053     -0.29393868128454     -0.03340142434043
  N   -5.12747144048252     -0.17590643192763     -0.10295373371598
  H   -5.74148487525651     -0.94031348175788      0.10667121193861
  H   -5.52249194339417      0.71353013231596     -0.35413935738458
  C   -3.04891072312655     -1.44451383596814      0.30143960760794
  H   -3.41929203125269     -2.42720425733852      0.53804535308344
  C   -0.60924568295147      1.14899608797463     -0.27249196905819
  C   -0.73498748025615      2.48320805764527     -0.72696014705057
  N   -0.89224957967814      3.53345387277642     -1.19430812239719
  C   0.63831996931796      0.55261235127798     -0.00151537178830
  C   1.77146425070982      1.36256964017030      0.27515245238540
  C   1.57386271807720      2.70480217700257      0.70021097500754
  N   1.52098774280196      3.77467757853465      1.14853878079309
  C   3.13510833891551      1.01287896156715      0.29322012650940
  N   3.77196282428304     -0.08318420897135     -0.03920481940886
  C   3.19771140759408     -1.26039364580424     -0.29669782872698
  N   4.04620928834331     -2.19625413511610     -0.78329353865004
  H   5.02720164681149     -1.98160685382876     -0.79082301658313
  H   3.76487919420819     -3.15127273340186     -0.90053087334156
  C   1.86912482194626     -1.65561702565640     -0.04331951251326
  C   0.71227682616319     -0.91735673448198      0.12742005593039
  H   1.72307158533817     -2.72898985007662     -0.03325096723275
  H   3.79375674694375      1.81884219062432      0.59793969052533
