25
Coordinates from ORCA-job ./opt_b97-3c_parallel
  N   -0.55900386755458     -3.55908999195439     -0.07391260882527
  C   -0.62155309348562     -2.39847436039479     -0.04831662255804
  C   -0.70816055298161     -0.98854334843645     -0.02146995990305
  C   -1.97492747174554     -0.39670634145817     -0.00945383296749
  C   -2.09035416320806      1.07651401732112      0.02661144356108
  N   -3.38977416979204      1.46173977427113      0.03697275191602
  C   -4.07857462390688      0.30450886615139      0.00880584040040
  C   -3.27726328839817     -0.86140035560800     -0.02112489775444
  H   -3.61424038814861     -1.88399125263309     -0.04647313549110
  H   -5.16026869480504      0.32532719078382      0.01025674009056
  C   -0.96901400831235      1.85950486424780      0.03253676824086
  C   0.32412722518940      1.29598039660554      0.00484830482544
  N   1.29489182432294      2.20321668331923     -0.02829493525189
  C   2.61081700404329      2.03785227530978     -0.05097132297548
  C   3.40914611667434      0.91414575326854      0.00084582846888
  C   3.01210366321655     -0.42594112361093      0.05978199186150
  N   3.98732263381622     -1.38534255201213      0.17023262688471
  H   4.92745491044403     -1.13759314891576     -0.08013628034760
  H   3.74315366663022     -2.33780499913805     -0.03516119641025
  C   1.68372368036156     -0.86731544211447      0.05078445848149
  C   0.47083452421759     -0.19638980564565      0.00168472793332
  H   1.58578920449730     -1.94684677304604      0.08425230030166
  H   4.47698408546206      1.10545168514115     -0.00220413687034
  H   3.15140337973394      2.97829269683997     -0.10605462064796
  H   -1.03983162297093      2.93677486060853      0.03973793983697
