27
Coordinates from ORCA-job ./opt_b97-3c_parallel
  N   -1.17838115960285     -3.70659791019666      0.04088848048748
  C   -0.91424443629455     -2.57497439753109      0.03157449773019
  C   -0.64736581925232     -1.18762396311486      0.02118568133623
  C   -1.72706282794614     -0.29636314155983      0.03658141822614
  C   -1.41287537483967      1.16657104674294      0.02380152130796
  N   -0.18444431214596      1.64546806448452     -0.00032591299448
  C   0.85601264655009      0.77422208473310     -0.01307078995106
  C   2.08867723897008      1.40446579926178     -0.04162529431544
  C   3.41465802372439      0.92142741506997     -0.04583829448042
  N   3.87157804389953     -0.32742321458648     -0.04246677897601
  C   3.10769680566817     -1.41194081479823     -0.04220711617157
  C   1.73643709328249     -1.60130308219767     -0.02243523999150
  C   0.67238958069224     -0.69439593869215     -0.00410043001859
  H   1.44706303972694     -2.64514340793760     -0.01773041879481
  H   3.68647249541917     -2.33059950939042     -0.05034145563844
  N   4.40223387893264      1.87018872600846     -0.09885148641313
  H   4.19952879171179      2.80824355933981      0.19403057893257
  H   5.33025292854596      1.53462479288386      0.09150714378058
  H   1.98613603828885      2.48278845883661     -0.06184159168990
  C   -2.62017051018791      1.86002789606660      0.04092575326834
  C   -3.64173219771778      0.89287488293608      0.06232539316014
  N   -4.95968245755603      1.14003674128927      0.09386552796079
  H   -5.31292555015425      2.07680606191829      0.03688716054762
  H   -5.62593372910729      0.39223628130869      0.04618708610083
  C   -3.08604608221471     -0.43753195101981      0.06061232087598
  H   -3.65146929706955     -1.35556214818730      0.07675874522892
  H   -2.74219831102333      2.93000212693211      0.03836366329155
