26
Coordinates from ORCA-job ./opt_b97-3c_parallel
  N   -1.36322971999187     -3.77208431698389      0.01624524301102
  C   -1.26297154275693     -2.61591096575303      0.00619407789104
  C   -1.08201572889837     -1.21188649844374     -0.00218308894300
  C   -2.17053069333564     -0.37563352156535      0.00162496712949
  C   -1.93533245082468      1.08708748613325     -0.00178900557746
  N   -0.72189814090744      1.63325335255177     -0.00417891614970
  C   0.34252524656041      0.83470664377461     -0.00758582508658
  C   1.57884148882645      1.54430970916278     -0.00103884404150
  C   1.46801341122067      2.96556389659769      0.01198320376020
  N   1.51585895483244      4.12499452976428      0.02402506208820
  C   2.88971840164790      1.07959901884961     -0.00397611784292
  C   3.39186520033824     -0.20480013582614     -0.01619308188527
  C   2.69277675198825     -1.40904788612856     -0.03388273183407
  N   3.40686836364469     -2.57306108165592     -0.09520825635746
  H   4.38996188939231     -2.55522139553067      0.10521922210175
  H   2.94649242626572     -3.44277707006635      0.10319821531791
  C   1.28921660490155     -1.54292262323593     -0.03151775109725
  C   0.24675193515762     -0.64147347207339     -0.01204377253594
  H   0.96600163989155     -2.57737233338284     -0.04699366278341
  H   4.47294948739439     -0.28059238306489     -0.01907100547416
  H   3.63818669308490      1.85984900565803      0.00788057081710
  C   -3.19870747968078      1.64924005114206      0.00332652994966
  C   -4.08430570257709      0.54486122233446      0.00950161079120
  N   -3.48820026527316     -0.66651835522167      0.00933641164154
  H   -5.16432827466559      0.60382067634260      0.01434770566881
  H   -3.45232077013550      2.69517922052125      0.00324311104077
