29
Coordinates from ORCA-job ./opt_b97-3c_parallel
  N   -1.23114400996531     -4.08305804699611     -0.00165372643173
  C   -1.00189227193564     -2.94423233378942     -0.00145333283177
  C   -0.66015140102464     -1.57155651684551     -0.00145997461154
  C   0.70061102508162     -1.25591732914869     -0.00239606507720
  C   1.11291989179115      0.15360896451754     -0.00246473719735
  C   2.51136106889757      0.17604857648704     -0.00345787060255
  C   3.41631986781963      1.23827636966019     -0.00392893461735
  N   4.27497609359508      2.02498291653410     -0.00427855298831
  C   2.95118624680049     -1.19549456511769     -0.00400304832937
  N   4.23700542001475     -1.55272891155255     -0.00490522251565
  H   4.96075938264747     -0.85450485452156     -0.00553616017181
  H   4.51259598589879     -2.51661581385853     -0.00556835372941
  C   1.83089966341860     -2.05447498925098     -0.00334420775406
  H   1.85489872621178     -3.13146951917512     -0.00351424277688
  C   0.14423610490417      1.15012161054843     -0.00166125861605
  C   0.56122165856232      2.50366178364834     -0.00191402740468
  N   0.89211155244342      3.61645318500375     -0.00250254999060
  C   -1.25047492247251      0.83917612755119     -0.00062553439211
  C   -2.13184381571322      1.92595423249192      0.00022116187993
  C   -3.51438221930650      2.02271744647821      0.00131836781374
  C   -4.45534141632459      1.01061734213506      0.00188445716811
  C   -4.20778629751881     -0.35386742684105      0.00145502077061
  C   -2.99451393264617     -1.01302743693105      0.00040269858508
  C   -1.66247618670242     -0.56829315469570     -0.00053170952559
  H   -3.09068540457067     -2.09145312771478      0.00028894889951
  H   -5.07850114216712     -0.99707445824881      0.00201785047012
  H   -5.49496198333778      1.31422098371207      0.00274878641435
  H   -3.89990990632711      3.03422155106765      0.00178762957040
  H   -1.63705125397434      2.88822261115206     -0.00001512160784
