26
Coordinates from ORCA-job ./opt_b97-3c_parallel
  N   -1.45894033631011     -4.07153957554812     -0.32473032656162
  C   -1.08660673811924     -2.97772886415992     -0.21591257676344
  C   -0.73038540622647     -1.61427267217109     -0.11458373939717
  C   -1.73094152501704     -0.62913113418974     -0.16624515924449
  C   -1.39869657657553      0.76472805087484      0.21146782907480
  N   -2.48444204633990      1.52974405208030      0.27178306385305
  C   -3.50786924914865      0.69151054451108     -0.06782241991360
  N   -4.74738337892612      1.16164034679803     -0.11022638003025
  H   -5.52787904870317      0.58223030628406     -0.35841452163018
  H   -4.91008966654084      2.12915839160595      0.11207777186376
  C   -3.08839370022326     -0.65194644603181     -0.34277852327792
  H   -3.71065836866963     -1.49301896847992     -0.59724665877771
  C   -0.07041783327255      1.14979341811428      0.41590672455659
  C   0.19147168112563      2.47538699211347      0.83126203587443
  N   0.35483500665517      3.54339291120337      1.25399419989677
  C   0.95379963115950      0.19824769482473      0.19152532962011
  C   2.24531881783051      0.58062547336887     -0.20400746166303
  C   2.49723835008563      1.91875921460411     -0.61135224169223
  N   2.80250200319821      2.95502572162620     -1.03595101906450
  C   3.36972904664636     -0.26460717701692     -0.44220502855840
  N   3.61922156643025     -1.47596168029090     -0.02822740813637
  C   2.72138432076049     -2.24205611122669      0.60948016708859
  N   1.42052537685065     -2.22532333936430      0.54548742207426
  C   0.59102864788307     -1.24942782347676      0.16521203714391
  H   3.14764280872192     -3.07263604727815      1.16117839193691
  H   4.17064225107214      0.19860281228325     -1.00903336560540
