31
Coordinates from ORCA-job ./opt_b97-3c_parallel
  N   5.59302269908936      0.11284119638900      0.11811687246753
  C   4.43261739349425      0.01129872037283      0.07761910218386
  C   3.04207396748892     -0.09801363782620      0.03699160028534
  C   2.31946222576231     -1.28482301589880     -0.12637718880450
  N   2.83571733639804     -2.53298537924279     -0.33601955623003
  H   2.25707752269450     -3.30915309705974     -0.06401322351092
  H   3.80202127782996     -2.65829073660268     -0.08224371663747
  C   0.92902680421201     -0.93310176096963     -0.12875890782650
  C   0.83528625619699      0.50714461093802      0.07596642229644
  C   2.11904173105396      1.01059818562957      0.15136593360936
  N   2.49097262911578      2.35543852215999      0.30742727022315
  H   3.46968423254421      2.44988265282087      0.54136572180269
  H   2.31534119442179      2.90476751833717     -0.52371944208097
  C   -0.43422830732343      1.11833207917843      0.16084732878976
  N   -0.47158719716308      2.50317673624417      0.33049171101896
  H   -1.25113984638100      2.82670285652105      0.88172398464418
  H   0.40110962852505      2.86145771814793      0.69793031554868
  C   -1.58860538458143      0.34623431817041      0.02561492266663
  C   -2.87640587059259      0.95166079063921     -0.29910340978110
  N   -4.08254877175243      0.52640155685806      0.02671300550027
  C   -4.37813733621579     -0.66727538364184      0.54727993689536
  N   -3.79227071086539     -1.83404601402739      0.44581747072428
  C   -2.53545462898971     -2.00442143939040      0.00389631086056
  C   -1.47984664304926     -1.10765576097762     -0.09023377772893
  C   -0.19536847940189     -1.69410461703709     -0.22514708909462
  H   -0.14135945320761     -2.77033540093693     -0.33523891031655
  H   -2.29027250810346     -3.04127091312680     -0.20658271037970
  H   -5.33482593950478     -0.68604663268930      1.06302809250796
  N   -2.86794799580282      2.08688658768960     -1.02029271628237
  H   -3.74807662830882      2.53832837227375     -1.19557374345598
  H   -2.00842413148314      2.55775384705715     -1.24591050389501
