25
Coordinates from ORCA-job ./opt_b97-3c_parallel
  N   0.23447319465815      4.01383522139019      0.00302366430339
  C   0.21109031957257      2.85341212189212      0.00302293612436
  C   0.17491465742290      1.43976004186755      0.00287302525503
  C   1.37676147189907      0.73415705108289      0.00446114677811
  C   1.37692719228335     -0.73390933071975      0.00436694568389
  N   2.63254611410857     -1.16941353761019      0.00607657188594
  C   3.34181954349912      0.00034549216421      0.00713250640655
  N   4.66783838619784      0.00049451721727      0.00897764982392
  H   5.16830127929746     -0.86942046354937      0.00966233486008
  H   5.16810590910125      0.87052176775098      0.00976449324825
  N   2.63228218408871      1.16994432682331      0.00621674527397
  C   0.17523963706271     -1.43978343569281      0.00266539945530
  C   0.21173320067211     -2.85342780505303      0.00259812531931
  N   0.23537737352539     -4.01384537204599      0.00239921841728
  C   -1.05814583085311     -0.73591276978048      0.00103696784696
  C   -2.22890387136341     -1.50148219593525     -0.00065352312503
  C   -3.57748397110893     -1.16840646490173     -0.00247898274772
  N   -4.20608943664343     -0.00050636910405     -0.00314825858758
  C   -3.57774819251974      1.16753554314728     -0.00209060109171
  C   -2.22924330052909      1.50091596597695     -0.00025192398118
  C   -1.05831204332688      0.73561131255608      0.00117675606828
  H   -2.06241498856951      2.57080231962178      0.00012912478873
  H   -4.25086132733492      2.01889041782959     -0.00283300308107
  H   -4.25040457763868     -2.01991326991546     -0.00354924763909
  H   -2.06183207700150     -2.57133088131208     -0.00055480338598
