28
Coordinates from ORCA-job ./opt_b97-3c_parallel
  N   -0.04169889968882      4.25098020184717      0.57039224520539
  C   -0.24034231473174      3.11607614784895      0.42009406466327
  C   -0.50168242950892      1.73738612720969      0.24670354568056
  C   -1.81399578030526      1.31634878153807      0.17124246073697
  C   -2.10740343778002     -0.09337448301468     -0.15538280802310
  N   -3.41102877602518     -0.29313206061334     -0.30938038415097
  C   -3.97758987580244      0.93517732699478     -0.06764432476694
  C   -3.06350247376812      1.94352460640617      0.22280265208946
  H   -3.26820471574208      2.98061511556992      0.42606832208119
  H   -5.05199104684225      1.03796408775514     -0.11731605679648
  C   -1.06887769006438     -1.02503510727093     -0.24794266861358
  C   -1.41053209240651     -2.33493368642611     -0.66457578466215
  N   -1.72253218449277     -3.36247918067867     -1.10316409096396
  C   0.26949959477564     -0.63177340060534     -0.02187848530358
  C   1.25892685548383     -1.62279581676204      0.22810254411653
  C   0.84371352895812     -2.89998437739790      0.70262061016520
  N   0.63564574953372     -3.92832961260286      1.19962143465721
  C   2.65190433406285     -1.53368541272448      0.14804674739464
  C   3.47248230919557     -0.47424557519898     -0.15782299496251
  C   3.11973649282882      0.86608803547615     -0.30848853218131
  N   4.09066779768787      1.76290375461086     -0.64844792464521
  H   3.91504140554865      2.74597252891050     -0.54590304396932
  H   5.05504733235228      1.49093338261768     -0.59297046921510
  C   1.83113810571054      1.38321901643694     -0.08386769149830
  C   0.58398264753629      0.80746977813485      0.06847194981790
  H   1.81074032899529      2.46626375135787     -0.06243349139679
  H   4.52729497466873     -0.70822940454375     -0.24208722536071
  H   3.16523684941945     -2.46453195857885      0.34539037120220
