29
Coordinates from ORCA-job ./opt_b97-3c_parallel
  N   -1.97631334792079     -3.86983090145658     -0.66054936833819
  C   -1.61212464876230     -2.78310128097487     -0.47586475181381
  C   -1.13709647682447     -1.47098398841497     -0.25387932146798
  C   -2.03609055734291     -0.42185238002251     -0.19518815084769
  C   -1.55928796554472      0.92369500646882      0.17245891267027
  C   -2.67865279789424      1.70298679279537      0.25483101339713
  C   -3.76197469820326      0.81366118919638     -0.08430690999130
  N   -3.36818099642835     -0.45374420473440     -0.34924725441585
  N   -5.04962651564456      1.14188264167369     -0.14933724504776
  H   -5.72144663241623      0.43706684287803     -0.39938512803812
  H   -5.37031089532563      2.07090411270228      0.04863155870632
  H   -2.74370935321574      2.74974555843712      0.49961563803018
  C   -0.17747815896700      1.16808417664182      0.32942968468478
  C   0.19194670971736      2.46973962857439      0.73626747434575
  N   0.38012389548060      3.53968076916633      1.14786009317859
  C   0.75168865455629      0.13995286587827      0.12615642029199
  C   2.12024688488773      0.46383085125141     -0.12416598045073
  C   2.40678315727652      1.74805544583960     -0.64172253072956
  N   2.77211689536538      2.72611028661645     -1.15531442287831
  C   3.27462824497594     -0.35485438788545      0.00375535356638
  N   3.36540061333692     -1.57675366775484      0.56692878077405
  C   2.37952073323832     -2.42183895473523      0.68623546362472
  C   1.03688518987384     -2.34915194115612      0.28779887319208
  C   0.25438677503141     -1.24426849857737      0.01619329303530
  H   0.52297422060566     -3.30118916751059      0.30139322748073
  H   2.67048330064180     -3.36789084947050      1.13445556689010
  N   4.46830551914182      0.11340020365900     -0.41059173740530
  H   4.58715525036761      1.05218102773065     -0.74717139040652
  H   5.27901979019280     -0.42942118521685     -0.17610925793726
