28
Coordinates from ORCA-job ./opt_b97-3c_parallel
  N   -1.54356700191847     -3.48314241934780     -0.28519333766588
  C   -1.36370287460004     -2.33779789095977     -0.19308106612843
  C   -1.16366007796302     -0.94516176404138     -0.08633834019911
  C   -2.30309319903466     -0.11011226196121     -0.06191068374969
  C   -2.11796229736812      1.34864906837002      0.08867310685753
  C   -3.41845690542539      1.94620515400757      0.10276695611641
  C   -4.32436036381404      0.92513894939355     -0.02972177900519
  C   -3.65106938692483     -0.34690044140640     -0.13279747528502
  H   -4.13011033603730     -1.30620387502952     -0.24247722741478
  H   -5.39805446281291      1.04402067768626     -0.05518920274392
  H   -3.62850000442837      2.99873485222351      0.19743769973054
  C   -0.86988834206973      1.86779076001097      0.17122392288025
  C   0.29858604466524      1.04030376157244      0.10084660662082
  C   1.49376585277100      1.70693334619019      0.10093436441357
  C   2.83693848807424      1.23722953484379     -0.03000349663553
  N   3.30945154312444      0.01830935160380     -0.00411641323255
  C   2.59300143632410     -1.11348728393302      0.13241008158275
  N   3.39145744010957     -2.21562182844019      0.33736677288855
  H   4.35416668730940     -2.09688545257609      0.07454885012222
  H   3.00408865455857     -3.12228173834218      0.14532405405405
  C   1.21964869575546     -1.31718772872068      0.08107165338507
  C   0.14035946325869     -0.42657569550734      0.00934831470445
  H   0.92967095948054     -2.36032140977475      0.10839255637425
  N   3.78435831450388      2.22522259245170     -0.13982908403578
  H   4.70401443342818      1.90638050309982     -0.39224588585326
  H   3.51490379536596      3.11370793897253     -0.52180292760891
  H   1.41363143204112      2.78501862974588      0.18237139170623
  H   -0.72464792077350      2.93711199316826      0.26362468172137
