29
Coordinates from ORCA-job ./opt_b97-3c_parallel
  N   -1.28256373246787     -3.99961487009684     -0.02569961242385
  C   -0.99024613112822     -2.87464851430551     -0.01134911795339
  C   -0.67836554916848     -1.49673183658371      0.00642643967457
  C   -1.73998999692792     -0.59108217445960      0.01816773371789
  C   -1.45298699389453      0.86474333638682      0.03273598647105
  C   -2.65269248953027      1.53688347926950      0.04209093724679
  C   -3.67997913273393      0.54476064766626      0.03477630493653
  N   -4.99288517307867      0.81031707294060      0.04035512080106
  H   -5.67295063948066      0.07332693122542      0.03774079026606
  H   -5.33187478862621      1.75393659786318      0.05447200084650
  C   -3.11077753146314     -0.75769302105445      0.01986634004085
  H   -3.65028083271978     -1.69015886272516      0.01188322985978
  H   -2.79705383283323      2.60448304201973      0.05267145097340
  C   -0.12278049661199      1.29840651166946      0.03060719646085
  C   0.13990289740789      2.68864167335284      0.03320557964558
  N   0.26083606313720      3.84374732115626      0.03120317571120
  C   0.96318513631843      0.39391809622897      0.02501444978250
  N   2.15238919641027      0.98761876646476      0.02057035163514
  C   3.39174176807002      0.53729494802593      0.02637158474255
  N   4.33977076360840      1.52474372207772      0.08122424366323
  H   5.27698315451835      1.32814594248316     -0.21881526220664
  H   4.00120160523865      2.45626952599185     -0.08932060103836
  C   3.84773985981751     -0.80177288497672      0.02358805038687
  C   3.06211437014691     -1.92097329540765      0.00470308365920
  C   1.67065130135973     -2.03371349654621     -0.00230296332067
  C   0.67716221439527     -1.06535575932600      0.00818848333897
  H   1.31072605356854     -3.05447554217137     -0.01497927501940
  H   3.59190198732328     -2.86549099192950     -0.00153938385646
  H   4.92087647304448     -0.95186758473965      0.04457673865820
