24
Coordinates from ORCA-job ./opt_b97-3c_parallel
  N   -0.59147433347071     -4.02681593670533      0.26074245745591
  C   -0.52720559794977     -2.86885279839189      0.20930027610455
  C   -0.47151656853002     -1.45618642102780      0.14530565470759
  C   -1.67831725281247     -0.73547712336417      0.11092886286773
  C   -1.64516705216077      0.73628476267319     -0.08968474987671
  C   -2.98385294424579      1.18834552885859     -0.15095548643738
  C   -3.78917532674979      0.07801473367819      0.00334453100450
  C   -2.99721681198894     -1.10879333578760      0.16484181419192
  H   -3.37565474069400     -2.10881331919548      0.29727226604918
  H   -4.86896743172293      0.09063902314588      0.00397845728127
  H   -3.29673376058854      2.20984943788262     -0.28328670373248
  C   -0.44410597108394      1.40114948532520     -0.13068246884595
  C   -0.41098833007644      2.81260328078168     -0.25126565932527
  N   -0.46331097766171      3.96498061517467     -0.36948835070733
  C   0.79325185493293      0.68795084167807      0.05350584645255
  N   1.83526008288860      1.44624255776849      0.27075566880129
  C   3.12101371833613      1.10513710719873      0.45023552762451
  N   3.79318164608006      0.04627501982413      0.06588162400978
  C   3.23603402677316     -1.10348155338087     -0.33291628140851
  C   1.92610359454746     -1.53136726535078     -0.22958022463298
  C   0.76303632596742     -0.80259723118118      0.06295451074260
  H   1.77540663447764     -2.58221698745890     -0.44886783759132
  H   3.94692761813132     -1.82684435447719     -0.71523218523072
  H   3.71701543349857      1.89737760442395      0.88856370549281
