26
Coordinates from ORCA-job ./opt_b97-3c_parallel
  N   -0.13881333094285     -3.50082284965306      0.14950801120940
  C   -0.22382730893346     -2.34457275569342      0.10488383538532
  C   -0.35867618227635     -0.93705135265246      0.05825794284638
  C   -1.60786261171042     -0.33373119915955      0.04004309672738
  N   -2.82197890895054     -0.87927277418336      0.06387995484415
  C   -3.66940205731107      0.19474779908523      0.00105756567397
  N   -4.98495740213201     -0.02810594986722      0.00586933947036
  H   -5.31397756961925     -0.97644165660786      0.04816528490921
  H   -5.65060685054363      0.71876049377587     -0.04756387972896
  C   -3.01540201717324      1.45601123658416     -0.06202789511930
  C   -1.66878064314781      1.14977494348236     -0.03619043103542
  N   -0.59697955845390      1.93737714241449     -0.05741031702181
  C   0.61355664198153      1.36046862737451     -0.02681991121807
  C   1.68208272934157      2.26101531604049      0.02871490586675
  C   3.05189213343310      2.04618168999499      0.06838861602214
  C   3.75868773460922      0.86812356827575      0.02742585342262
  C   3.21478558639293     -0.42689577317917     -0.07092470347265
  N   1.94109351749972     -0.79739226789916     -0.03943787083817
  C   0.80715232225862     -0.11981103066387     -0.00198065868565
  N   4.07689983155128     -1.47535492028853     -0.22569847941342
  H   5.04911264937498     -1.36349730177155     -0.00523763247854
  H   3.68113613326963     -2.39045462783500     -0.09560075037086
  H   4.83962622440276      0.94240880773073      0.05049000072098
  H   3.65266744863397      2.94504339262225      0.13598513363408
  H   1.35497385305463      3.29218484002764      0.04695183722734
  H   -3.46848815680942      2.43119958224568     -0.11422369627724
