28
Coordinates from ORCA-job ./opt_b97-3c_parallel
  N   -0.58238536949282     -3.98075543355926      0.83425718595155
  C   -0.52339439367087     -2.84346471215370      0.60448378083540
  C   -0.53547974235677     -1.45782714582978      0.34068691756156
  C   -1.76486961283002     -0.78230839065229      0.22516733416641
  C   -3.07194755482932     -1.15692412911247      0.36747759474025
  C   -3.82591468388994      0.01721623772494      0.01057467127384
  N   -5.15108247335174      0.12038911241639      0.00183887182521
  H   -5.56991098448801      0.99420518877777     -0.26652260396575
  H   -5.74441132727668     -0.64881695691473      0.24997612833682
  N   -3.06369454755259      1.08138580484021     -0.33813969266507
  C   -1.80504226173132      0.63585950973942     -0.22173738456082
  C   -0.62864433194480      1.34152311731926     -0.41039673186547
  C   -0.64467738956982      2.71920642063002     -0.72066035805496
  N   -0.65926023573984      3.84937797479289     -0.98343459647670
  C   0.62295860880044      0.70552529935854     -0.12562377802801
  N   1.65261062290081      1.49248790106723      0.01912573519185
  C   2.92829380635413      1.14007787257721      0.31180019897070
  N   3.61037275240766      2.12888037304878      0.92160525638826
  H   3.19711189057295      3.04261340023324      0.95873496660034
  H   4.60009978579602      2.02687172400688      1.05056399197204
  N   3.61074416714299      0.04789453894956      0.01775578372877
  C   3.00109658027415     -1.09418934671288     -0.32837453611089
  N   3.80721966386240     -2.01499162281440     -0.89918665822800
  H   3.46584766689435     -2.95527354899057     -0.97980451354428
  H   4.79661643072230     -1.84993046479390     -0.90573934212668
  N   1.75213721593949     -1.51484410789407     -0.12650835271893
  C   0.66365179766686     -0.78545964056219      0.05959920112953
  H   -3.45913342430997     -2.11639777189219      0.66611604167304
