26
Coordinates from ORCA-job ./opt_b97-3c_parallel
  N   -0.62053856124302     -4.34856985184252     -0.00124858984262
  C   -0.41457257626832     -3.20661353355065     -0.00093060803784
  C   -0.11953147940301     -1.82023041751042     -0.00057643834700
  C   1.20340282287259     -1.42182531394336     -0.00003173246815
  C   1.47435707170555      0.03566555264572      0.00031447200514
  N   0.52930874850436      0.95263070705517      0.00008157086667
  C   -0.75495319360364      0.57065606557320     -0.00045428647595
  C   -1.64994287769841      1.67464284957953     -0.00066866121037
  C   -1.02990826769215      2.96148700761058     -0.00038579456516
  N   -0.67183715810317      4.06461243686239     -0.00031364727632
  C   -3.04284900514704      1.72701297842603     -0.00111603287517
  C   -3.95305865658287      0.68272508597337     -0.00150443211701
  C   -3.69946350605932     -0.67562849849070     -0.00157344663147
  C   -2.47263214594125     -1.32304795195869     -0.00126796703696
  C   -1.16365714186796     -0.84566498713742     -0.00078409565491
  H   -2.55001576355620     -2.40352592119683     -0.00142875874248
  H   -4.56514384034477     -1.32436343170308     -0.00191908229417
  H   -4.99595409400052      0.97422088064663     -0.00180154206475
  H   -3.46103691615202      2.72341303486585     -0.00116188836879
  C   2.87042447001799      0.19391507790278      0.00089969988639
  C   3.58646537993543      1.39732241239113      0.00142212929232
  N   4.20273574893613      2.38252436944582      0.00179755642980
  C   3.42919326828972     -1.11350503075418      0.00089707527120
  C   2.42989776305348     -2.08727282796759      0.00032627782400
  H   2.57949501416107     -3.15390740214128      0.00020490933557
  H   4.49022807908742     -1.30855288048153      0.00129407319799
