28
Coordinates from ORCA-job ./opt_b97-3c_parallel
  N   -1.54787387143043     -4.00988833635131     -1.15464810348309
  C   -1.05471648714690     -3.00223770576780     -0.85986701106371
  C   -0.40064683613188     -1.79430984199138     -0.52409137338894
  C   0.94907611148597     -1.74363208562796     -0.33974899030051
  C   1.59057985922978     -0.51028220243215      0.12500466509174
  C   2.92625748040393     -0.81049693823645      0.31857719878508
  C   3.96365432307813      0.01138158766299      0.77009344192036
  N   4.87554425123372      0.62860195999196      1.14446675658327
  C   3.12794690529574     -2.21906344512858     -0.04250625378022
  C   1.95293911768859     -2.77035760417207     -0.43284823957834
  H   1.77473619577231     -3.78532932219239     -0.74430614320125
  H   4.08672100874674     -2.70888221862058      0.01198797887120
  C   0.83485808455105      0.68269419711880      0.22663419685334
  C   1.47906841022377      1.87848820834748      0.62333175849281
  N   2.00326360623756      2.83133547877780      1.02747041645013
  C   -0.53336718389012      0.66992983715515     -0.03737961613067
  C   -1.21107612976583     -0.62632575728662     -0.18881563320366
  N   -2.46302989132223     -0.89085877643175      0.02671031359445
  C   -3.41447564587358     -0.01367306628593      0.44335065241255
  N   -3.60886744694445      1.22898738836579      0.03128910360839
  C   -2.64851024433597      2.00411824118726     -0.45036686617486
  C   -1.26372792150911      1.84722811734725     -0.42433402158450
  C   -0.55505429162879      2.93577159575920     -0.99032827689982
  N   -0.04209926791345      3.83267065833026     -1.52112281849611
  H   -3.00638517952757      2.92737476404343     -0.89005650957839
  N   -4.33251990496377     -0.54776181940415      1.25872314813589
  H   -4.33660751867039     -1.53936304031524      1.41660590131602
  H   -5.14353605019546     -0.00530559314258      1.49709524115270
