29
Coordinates from ORCA-job ./opt_b97-3c_parallel
  N   -2.96286309395552     -3.32790298946009      0.73933188860204
  C   -2.36773285691913     -2.35490901836007      0.52383477662235
  C   -1.65944360387077     -1.15360456939904      0.27291795609534
  C   -2.35144300291493      0.01960870156414      0.17475656426767
  C   -1.64069325680945      1.25721652795698     -0.17508197932106
  C   -2.57908869116489      2.24394298614680     -0.30435874535835
  C   -3.87371891459114      1.66011302818149     -0.02234294544346
  C   -3.74605714107120      0.32850524831092      0.26737392387649
  H   -4.52895485130231     -0.37178887074494      0.50413045618031
  H   -4.80289268865778      2.20944678113138     -0.04245699657415
  H   -2.39366784649763      3.27504776748467     -0.55720646631838
  C   -0.22746936449817      1.24095733734123     -0.27309960194497
  C   0.40162009721692      2.45960788345504     -0.62490226822449
  N   0.83657492424364      3.47232937558138     -0.98956125863670
  C   0.50046735137916      0.07016133788273     -0.08113806856593
  C   -0.22349533595073     -1.19419786436009      0.03243325590917
  C   0.32085676097163     -2.43387044925083     -0.19606575045122
  C   1.61340873349018     -2.78408955398390     -0.63851354161371
  C   2.74953339121639     -2.04635020823522     -0.65082491345680
  C   2.94745229241921     -0.73952875762719     -0.11251891532722
  N   4.24876639251705     -0.38355045727793      0.07186541050227
  H   4.45870998449549      0.47851844500850      0.54712177239270
  H   4.93855693030001     -1.10613138260805      0.16480189652620
  C   1.92457781213512      0.15992857332220      0.19653852501432
  C   2.36630734849370      1.30723252090538      0.89357783547516
  N   2.83348567601633      2.16533077381939      1.52590872130416
  H   3.64370516327928     -2.53421503742955     -1.02011563743288
  H   1.70911436750027     -3.80306810975278     -0.99237647979009
  H   -0.36262945847124     -3.26913800850064     -0.12100268160861
