29
Coordinates from ORCA-job ./opt_b97-3c_parallel
  N   -1.59162042813145     -3.83447605019267      0.00191411906223
  C   -1.08048086429435     -2.79154775441893     -0.00607220390491
  C   -0.44067835398571     -1.52904089676582     -0.01100681714893
  C   0.94080752291130     -1.50392100245900     -0.00329938717299
  C   1.65453774113721     -0.21517359141162     -0.00140314532342
  C   3.02457755758463     -0.51106250593350      0.00562173641150
  C   4.11338909892313      0.36934132442981      0.00978455325037
  N   5.05305522992186      1.05457640676281      0.01333126701335
  C   3.14433161394215     -1.93649976083969      0.00823226026268
  C   1.89648913562028     -2.53403519777256      0.00343049714709
  H   1.68686941948506     -3.59012923683113      0.00366471005242
  H   4.09205612615626     -2.45205277660897      0.01324493203160
  C   0.92248154952037      0.96699975155817     -0.00285318828433
  C   1.60656296355382      2.20805849071101      0.00615305152289
  N   2.13424788442798      3.24172478831717      0.01375477990979
  C   -0.50336701161645      0.96348345467451     -0.00871782956415
  C   -1.14244778085085      2.20609174287746     -0.00341241746797
  C   -2.47987336550469      2.56294474441643     -0.00555157588013
  C   -3.61325795428539      1.77701039139860     -0.01945316072167
  C   -3.69082046922130      0.38426145327335     -0.03705582031300
  N   -4.93495271036517     -0.19389386282666     -0.10674541960835
  H   -5.02280716762753     -1.16588217760644      0.13084943630307
  H   -5.73118267280564      0.36339013515294      0.14528099671929
  C   -2.59261188882693     -0.49203897346173     -0.03789322195147
  C   -1.21801134043219     -0.32153127074225     -0.01846010167188
  H   -2.89276376461920     -1.53310008654986     -0.05707162957820
  H   -4.55883779024579      2.30779272947088     -0.02347614030036
  H   -2.66137980889646      3.62976366554742      0.00667567320317
  H   -0.46958778067492      3.05255567343027      0.00621661720232
