25
Coordinates from ORCA-job ./opt_b97-3c_parallel
  N   -0.54979167554247     -3.45528323336079     -0.56769945050264
  C   -0.59314275582233     -2.30654810092349     -0.40796455201416
  C   -0.72537754839081     -0.90928087077647     -0.22432782348585
  C   -1.96428363760924     -0.33536237523307     -0.08308256555741
  C   -2.08128119301493      1.12824571046905      0.15163261964011
  C   -3.42431526138444      1.40751210937863      0.26310354829396
  C   -4.14256702262111      0.17317670218848      0.10892488848210
  C   -3.27543417224009     -0.87754593500307     -0.09819855175002
  H   -3.52621796269676     -1.91429243678901     -0.24439451400688
  H   -5.21887013054065      0.08833677054851      0.14965014850809
  H   -3.86789668382493      2.37497208349197      0.43450559128789
  C   -0.93054123638777      1.91275644853579      0.17034245209074
  C   0.33222175237576      1.36613807779810      0.03313807341487
  C   1.44093686498552      2.21412182908284     -0.17126327973064
  C   2.77325135504073      1.90848819744556     -0.33429826236072
  N   3.43417283057431      0.75699692259649     -0.17441838439301
  C   2.85654020924742     -0.39356629694452      0.12195451313097
  N   3.66735457495550     -1.37997683987908      0.57369486187361
  H   4.65841365384757     -1.22570926294348      0.53115685147594
  H   3.32278809207500     -2.32264791084290      0.54393138710607
  N   1.57030849428340     -0.81075696708003     -0.02685649306385
  C   0.47643809223341     -0.11148814394478     -0.08180385972503
  H   3.41968952988845      2.73673683006207     -0.60390243030271
  H   1.20130839176469      3.26729291981954     -0.26529975003919
  H   -1.02089149949622      2.98865248450366      0.25716134342778
