27
Coordinates from ORCA-job ./opt_b97-3c_parallel
  N   -0.17963014305289     -4.11566660675954      0.56263281896336
  C   -0.13253703754931     -2.96410927610452      0.41526337650208
  C   -0.04653619273245     -1.56615248991818      0.24103307547634
  C   1.20539369855435     -0.95032494485414      0.21336001159924
  C   1.23881081031088      0.50219043016052     -0.12735692925306
  N   0.17147153159074      1.26160945941154     -0.25766645827048
  C   -1.03860160398469      0.69324229555129     -0.10145740019398
  N   -2.02716126856790      1.55514202179618      0.02921144734712
  C   -3.34002976395870      1.35511230531047      0.08919948112644
  N   -4.09612555892209      0.37978597532902     -0.45648554929451
  C   -3.63635930096188     -0.83714222854540     -0.63960490886876
  C   -2.40450850703669     -1.41111045766141     -0.31480707936217
  C   -1.20200707107715     -0.78996192792360     -0.00792563286011
  H   -2.37556984235497     -2.49081696917308     -0.39838286629549
  H   -4.35921856511887     -1.51474537763876     -1.08456829709648
  N   -4.04033198541542      2.33788029209001      0.69046304264238
  H   -5.03850964741068      2.34448510055117      0.58554191107272
  H   -3.56507013212249      3.19315349911499      0.91542594327567
  C   2.58600455690400      0.87525420365053     -0.21159477700730
  C   3.15510328713254      2.11778827390375     -0.48456436740801
  N   3.72566932850219      3.10968456294318     -0.70147820874519
  C   3.35564820248123     -0.29816340284763      0.08860338561448
  N   4.68489964789229     -0.31922120934600      0.10633539956443
  H   5.19328424801955     -1.15604154836577      0.32519507513053
  H   5.21148306870311      0.51422227633461     -0.09552473517016
  C   2.49672988682604     -1.40258138022037      0.35127607663667
  H   2.81423782624935     -2.40624036528917      0.58206180457424
