26
Coordinates from ORCA-job ./opt_b97-3c_parallel
  N   -0.25564392309647     -3.51163620389001     -0.59250463168899
  C   -0.25896886435109     -2.35898514693976     -0.44828666173127
  C   -0.35707639969280     -0.95994818351332     -0.28025604877131
  C   -1.61458707398385     -0.37240121701105     -0.12649934519996
  C   -1.70789383890935      1.09163665024650      0.16501489889822
  C   -3.04023133710505      1.40066653225718      0.31459523006917
  C   -3.77441965257347      0.18431730181798      0.12731193564495
  N   -5.10611947856927      0.08827992479444      0.19736356919229
  H   -5.67746855354906      0.88980654484458      0.38996714139490
  H   -5.57159613836070     -0.78981032620518      0.05969057386762
  C   -2.89164262632474     -0.89350997978008     -0.14268582596350
  H   -3.17047039397108     -1.91939740730011     -0.31641180556433
  H   -3.46726766447108      2.36828086377703      0.52231885996044
  C   -0.55482259773082      1.86981851172831      0.17048701503072
  C   0.69520125542503      1.31717038087593     -0.04661859335573
  N   1.70380050341005      2.17150186311671     -0.27987948263358
  C   2.97759583399997      1.88091875755627     -0.46135737562009
  N   3.71274480595523      0.80256092939592     -0.22062688486275
  C   3.18695173691150     -0.37226530686191      0.13358592846412
  N   4.05821312525012     -1.26764742430606      0.64845543482505
  H   5.03726831679634     -1.05074971752420      0.61216657844022
  H   3.76863836679290     -2.22627120246681      0.71705973956169
  N   1.94254632920541     -0.86177773407966     -0.01361632002459
  C   0.82311070977773     -0.18761675007305     -0.13470657444815
  H   3.56218379803402      2.72130326980790     -0.82476161690264
  H   -0.61075007956944      2.94602210403251      0.25740452481752
