25
Coordinates from ORCA-job ./opt_b97-3c_parallel
  N   -3.09781047202410     -3.48201124211253     -0.40989437470366
  C   -2.59500664995061     -2.43675566073646     -0.30328163752962
  C   -2.03700193505476     -1.16592101150634     -0.16851554026691
  C   -0.68188502786053     -0.80409726568582     -0.16070543027945
  C   -0.60039837020261      0.66139996117788      0.02234554823522
  N   0.53045125886621      1.35139873204677     -0.00323692476445
  C   1.67408336164595      0.67733623994070     -0.13155996414756
  N   2.73991098094526      1.43560749152984     -0.39584521547622
  C   4.01686859252281      1.13213507920189     -0.39734574432577
  N   4.69921076544623      0.11552422705423      0.14184691672241
  C   4.15368790624967     -1.04753083908486      0.44206533471340
  C   2.86311972440407     -1.52402720163035      0.20123051541933
  C   1.70450197457780     -0.81720495530188     -0.09858310038593
  C   0.49137989518761     -1.51304493136431     -0.20281148984829
  H   0.49199286485677     -2.59480759305771     -0.23813980782106
  H   2.73566807651990     -2.59025778442805      0.35471336293533
  H   4.83950753696104     -1.75744951469354      0.89530476235258
  H   4.65155996771680      1.89654470352270     -0.83410094275175
  C   -1.90449034791272      1.14957758899253      0.14812570788435
  C   -2.35031307619831      2.45943524318586      0.33347128944118
  N   -2.81838118704689      3.51326038409068      0.48861494216488
  C   -2.79240671059365      0.02946069659628      0.02831942987207
  N   -4.11456796198634      0.10336728799836      0.09351160178490
  H   -4.68409990751265     -0.71963348541616     -0.00268435140082
  H   -4.57341940575698      0.98746695848030      0.23389890687585
