25
Coordinates from ORCA-job ./opt_b97-3c_parallel
  N   -1.88477783803661     -3.43014275679124     -0.30306842074847
  C   -1.50715789270055     -2.33539480583881     -0.20562728863972
  C   -1.07704189236172     -0.99407540495555     -0.08956136706467
  C   -2.04702571483548      0.01727703309990     -0.04099450643111
  C   -1.62145358310629      1.42086579574293      0.11890609430795
  N   -2.69807084720039      2.25585255257844      0.16101661401442
  C   -3.75220132478686      1.43820588607198      0.03582839791600
  C   -3.42470301692883      0.06037695763129     -0.09250369782662
  H   -4.10903203290849     -0.76389600330930     -0.20362203938317
  H   -4.75375999245671      1.84777666824438      0.03811877592467
  C   -0.29790716883074      1.74388992169429      0.17887273605081
  C   0.70739739789114      0.74798438192014      0.08514602131910
  N   1.93137687620043      1.24576550131343      0.04341211778333
  C   3.13457148402163      0.67816118183695     -0.00683562833616
  N   4.15984564402467      1.58170836879306     -0.12474505112953
  H   5.04041120667192      1.27348612626831     -0.49496431234432
  H   3.88294090756713      2.51633686718275     -0.36957439298177
  C   3.46651598475404     -0.67709172525880      0.14343841841740
  C   2.59207466365462     -1.73985205730609      0.17864660336580
  C   1.20872021793457     -1.74174479262421      0.08706480088783
  C   0.29893811938077     -0.68775035831218      0.00060667979396
  H   0.76094853580643     -2.72756831306244      0.09622727241052
  H   3.04707193408014     -2.71657988583076      0.28247462423272
  H   4.52179090920043     -0.90878024735593      0.23074588585477
  H   0.02288896086475      2.77180580006747      0.25637650370631
