29
Coordinates from ORCA-job ./opt_b97-3c_parallel
  N   -0.81285239530765     -4.17721738103193      0.52430066912795
  C   -0.50858577039412     -3.06709959582170      0.37385959990883
  C   -0.05741528677299     -1.73820048956642      0.20674604486838
  C   1.32633507591146     -1.47770337214137      0.21040454924666
  C   1.81751431515858     -0.12086832163606     -0.09247359149117
  C   3.25968267937660     -0.18402726385808     -0.08867131125373
  C   4.15809091375071      0.86559908867129     -0.31045312480422
  N   4.92515226598743      1.72124777834481     -0.48980485109901
  C   3.59276589655644     -1.49905405483994      0.20167690883809
  C   2.42155261083101     -2.29071141333681      0.38412312701007
  H   2.40175595865122     -3.34408214605247      0.60803780906366
  H   4.60540705894904     -1.86327454272928      0.27810951414193
  C   0.93851398136072      0.90040421403352     -0.30193563404377
  C   1.37262765058661      2.21878910158844     -0.57613468544837
  N   1.64298791610643      3.32558157307644     -0.79881201307593
  C   -0.50039858487297      0.66461856183051     -0.15588413709004
  C   -1.30224828551993      1.75395831819992     -0.05432120313930
  C   -2.71164170293954      1.81339256639389      0.26757834036243
  N   -3.62222068171563      0.89005386586999      0.13539124648590
  C   -3.35423811079533     -0.37452704532443     -0.28328573611587
  N   -4.43596896863036     -1.01096041312599     -0.78723267800029
  H   -4.37545025830384     -2.00552876296437     -0.91235875949095
  H   -5.33916961130835     -0.59270298632315     -0.66220701925620
  N   -2.26179731195471     -1.10068242588440     -0.19742154313334
  C   -0.99198384987931     -0.72164884648614     -0.02174740110155
  N   -3.13160220249825      3.01740031675693      0.71574311708118
  H   -2.48541230678835      3.73884702346123      0.97429830616516
  H   -4.08758940729857      3.10648172830649      1.01125356597524
  H   -0.82171332994629      2.72028650438906     -0.13880004583173
