21
Coordinates from ORCA-job ./opt_b97-3c_parallel
  N   -0.84039344309766     -3.51577968276366      0.73931454819427
  C   -0.71089762347576     -2.38102889367244      0.53828767303157
  C   -0.60353432427088     -0.98723120824257      0.32174255296752
  C   -1.69456643410066     -0.18175194725736      0.17574605142477
  C   -1.48517033985640      1.26398063691543     -0.15681136310293
  N   -0.28086283818937      1.87185338910963     -0.10165119611427
  C   0.77104369464731      1.11750074997605      0.07112875891452
  N   1.91293995514565      1.69868160871604      0.52287564018987
  C   3.10662124196011      1.19121370478138      0.49790648160070
  N   3.61542192341137      0.19174469069566     -0.26988525531977
  C   2.88395298788490     -0.78110716798196     -0.71490892776205
  N   1.64754873286115     -1.18189219628974     -0.31886638428458
  C   0.68972687748403     -0.38987102403225      0.04520121858923
  H   3.34672080939723     -1.45440528378233     -1.42906333258735
  H   3.85137854231521      1.71683387019271      1.08576892451555
  C   -2.71999195784885      1.79951254525569     -0.38220656833359
  C   -3.70115603902990      0.74898313753238     -0.18551175059483
  C   -3.09860414386733     -0.43102151914993      0.16227188175466
  H   -3.57327174399640     -1.37577976913160      0.36581141693184
  H   -4.76573187226351      0.89132434044107     -0.29804125008156
  H   -2.93171972831018      2.82307937408775     -0.64217434593358
