33
Coordinates from ORCA-job ./opt_b97-3c_parallel
  N   5.77482919600782      0.15484734796648      0.03627762854534
  C   4.60919693799574      0.16265163001212      0.04974790112180
  C   3.21292660886431      0.16295161455902      0.05726076615351
  C   2.38625482380771      1.32111263380031      0.05205638454878
  N   2.84298713094396      2.62462905006182      0.11089037663293
  H   3.79896427073136      2.73980079061132     -0.18750389662634
  H   2.24305463214728      3.29774438059206     -0.33775245977083
  C   1.05325444151683      0.88209701321238      0.07270458776222
  C   1.06432145762821     -0.57916088239050      0.04934557563446
  C   2.39770103271813     -1.00142181990731      0.05530263603912
  N   2.84208248262372     -2.33899998740643      0.03379006728206
  H   2.72443477602188     -2.79315941242113      0.93163675111445
  H   3.82192173465045     -2.39685786332072     -0.20944871219071
  C   -0.12392512739937     -1.29349302125019     -0.08139402584674
  N   -0.06184868395118     -2.66403080901767     -0.21821937233551
  H   -0.76902311610262     -3.07709393051894     -0.80126044734637
  H   0.86802210064325     -2.99712955488031     -0.44391881884518
  C   -1.37788437944361     -0.60120693107158     -0.02388044073791
  C   -2.52674852658938     -1.36791259931302      0.10567877038445
  C   -3.88344770040077     -1.07114963325789      0.15326158980854
  C   -4.51210229499944      0.16514540643475     -0.00519108203563
  N   -5.87326916805346      0.18235928139628     -0.03604774462774
  H   -6.35455624418064      1.05553428810537      0.07810672671230
  H   -6.37975669975631     -0.63430547688373      0.25371018049040
  C   -3.86415169065325      1.41295826211666     -0.15248783381195
  C   -2.51794301270978      1.67966007865391     -0.11934627902412
  C   -1.36657749255278      0.88015265743580     -0.03203060408991
  C   -0.15044434639128      1.55914134344045      0.01525848238378
  H   -0.16895468630265      2.64259043648159     -0.00219265850980
  H   -2.29086038925172      2.73965054426824     -0.17219619768637
  H   -4.51535900471001      2.27245801197182     -0.25796016916657
  H   -4.54034071954691     -1.92026886814885      0.30057196209727
  H   -2.34281828940533     -2.42577045563201      0.24810123254015
