28
Coordinates from ORCA-job ./opt_b97-3c_parallel
  N   -0.90735229793290     -3.54190542858065     -0.51435042242147
  C   -0.82113290530924     -2.39254350778038     -0.37664065503427
  C   -0.73431656572148     -0.99027189511863     -0.22082898968408
  C   -1.88289060762698     -0.21645429875431     -0.13483274290699
  N   -3.15861091235262     -0.61359721256889     -0.21189730053090
  C   -3.87376511367901      0.53027138857418     -0.04033493261016
  N   -5.20694743546925      0.47436139348019     -0.06364026673016
  H   -5.65131103961149     -0.41587874120541     -0.20291699022119
  H   -5.77521229085187      1.28995563815643      0.06116506394721
  C   -3.07357010172614      1.69891996957523      0.15056124156480
  C   -1.77226149381455      1.24617122225834      0.09510990391692
  C   -0.52240194143861      1.84811447109275      0.16210766494744
  C   0.64884248360885      1.11231851487219      0.03482896001035
  N   1.77729034267745      1.82608199605198     -0.04823859397636
  C   3.03466653863356      1.42148202207582     -0.13481786346088
  N   3.91614769038223      2.44337158532708     -0.40201128411317
  H   4.88162056393848      2.32227055758671     -0.15381471244464
  H   3.54292034728068      3.36368287287407     -0.24546485980184
  C   3.57855943490198      0.13591605546155      0.01198557648191
  C   2.86359049849364     -1.03882709834487      0.17040831069841
  N   3.52720368079308     -2.19473195841414      0.47164262857082
  H   3.01042162970902     -3.04183512937922      0.30952452028321
  H   4.52226454541818     -2.24299053288899      0.35181707411644
  N   1.54097257719710     -1.24467033149360      0.04053745982743
  C   0.55449997997834     -0.39109864659878     -0.05368011373055
  H   4.66027421200594      0.05711154681590      0.00686019319880
  H   -0.42142274684701      2.92074124676995      0.24849456097930
  H   -3.42329625133768      2.70696744985550      0.29997418742340
