25
Coordinates from ORCA-job ./opt_b97-3c_parallel
  N   1.82130205465004      3.84604699467757     -0.33260120329485
  C   1.35033750701455      2.79141521682171     -0.23037967754082
  C   0.69351429192991      1.54077583119547     -0.13142125854473
  C   -0.67943105702956      1.47530513634734     -0.11927226586027
  C   -1.36743073766407      0.18233024023869      0.06861436413439
  C   -2.72777025012620      0.45715775532282      0.10695716976592
  C   -3.79580618694896     -0.43171662545297      0.27649229474297
  N   -4.71822274700437     -1.12488260307979      0.41909175285356
  C   -2.88599058321129      1.88799731477678     -0.05863866496511
  C   -1.66343878640200      2.49271427415555     -0.19506989089275
  H   -1.46825507382765      3.54346566887693     -0.32386844229419
  H   -3.84578793068582      2.37988580437255     -0.06675410560966
  C   -0.61824572786018     -1.00249656642292      0.11083500573833
  C   -1.26494596990049     -2.26126276096340      0.15618363636129
  N   -1.74697074093150     -3.31632477008833      0.18451370360701
  C   0.78520249603370     -0.96241880345658      0.04779849739396
  C   1.50473509182223     -2.12489001038893     -0.26277191262255
  C   2.87274794084134     -2.31476093373343     -0.36440456843385
  N   3.87170618404701     -1.55045089697007      0.08328508898383
  C   3.72969047039181     -0.32058760711550      0.52256943774973
  N   2.74175215677420      0.56162808615938      0.33038816486432
  C   1.47720736251414      0.35258543251267      0.06653863939486
  H   4.59753773421854      0.09951313304118      1.01756643297730
  H   3.19476028969886     -3.25799703028747     -0.79012033313237
  H   0.90718425455578     -2.99429880203870     -0.51012662357599
