28
Coordinates from ORCA-job ./opt_b97-3c_parallel
  N   -0.35084618384379     -4.57764788542392     -0.23733564177543
  C   -0.31144727350739     -3.42238914003968     -0.13694553785070
  C   -0.34341218724050     -2.01168506503039     -0.05813646318072
  C   -1.55515166205767     -1.32965503643792     -0.31065579704540
  C   -1.67328993801265      0.08662935702022      0.06556614288136
  C   -3.06790692744847      0.45362104941879     -0.10324539027607
  C   -3.64015470083869      1.71772483831129      0.08377927463104
  N   -4.13990402643938      2.75765654116954      0.22428543883233
  C   -3.71628238180309     -0.67292629360343     -0.56787739383478
  C   -2.79912528296469     -1.76803960757114     -0.68636390774932
  H   -3.05589466243451     -2.77085150731552     -0.98516445801762
  H   -4.76684685300056     -0.71545292082012     -0.80749073691677
  C   -0.58573774978112      0.79142136924370      0.49055651303031
  C   -0.71448165494396      2.07874172009780      1.05886939370528
  N   -0.83297331427098      3.08751509342618      1.62052797837913
  C   0.73117973038482      0.15970919028644      0.36128899788877
  C   0.78720981867152     -1.31428971730702      0.34905937517786
  N   1.81867017756290     -2.01059440914444      0.87849542414410
  C   3.05564445621038     -1.63681335145259      0.96892662617084
  N   3.72103929932264     -0.68096584593047      0.30129625220580
  C   3.18097526390632      0.38373174464795     -0.22464172638341
  N   3.92822430918012      1.09509446746878     -1.08029830333195
  H   4.87701721611319      0.79740271673846     -1.22727967071154
  H   3.65300951497324      2.00319412648296     -1.40974343320966
  C   1.83980283342439      0.92816316111729      0.09930220281325
  C   1.75603680943295      2.33084490934578     -0.08379641451701
  N   1.85553807451217      3.45670247646360     -0.35292630427115
  H   3.68815255539157     -2.26301338406477      1.58841394661438
