28
Coordinates from ORCA-job ./opt_b97-3c_parallel
  N   -1.00491401320263     -3.94255551936038     -0.78350689787172
  C   -0.99212060522741     -2.79919108310968     -0.57975533731955
  C   -0.96678325743159     -1.40775238909660     -0.32579809179530
  C   -2.13342990554343     -0.73015012732019     -0.12935982723122
  C   -2.11307560940484      0.71629973157970      0.16587657916797
  C   -3.40994009567577      1.11355187365215      0.32526176601280
  C   -4.25716196057474     -0.05156647107413      0.13715312163179
  C   -3.50351487455400     -1.15701474975946     -0.13645461534034
  H   -3.84560021652273     -2.16195092559455     -0.31552735970980
  H   -5.33467727145609     -0.03231643016765      0.20721348407630
  H   -3.75157151619993      2.11242128593120      0.54139427973138
  C   -0.87731293672449      1.40545269289092      0.16644077008035
  C   -0.87846467664621      2.80970708104637      0.32743801384879
  N   -0.95586863671180      3.95920092501800      0.47230373870823
  C   0.33377975002147      0.74362482355566     -0.03855983283216
  N   1.42483260607165      1.51425712600007     -0.19334857311105
  C   2.68941945409514      1.18371815249926     -0.23968502388578
  N   3.34832240005471      0.05215448573346      0.14602339539534
  C   2.78480850062048     -1.11824190900992      0.21584820475699
  N   3.57871764622395     -2.14955820253943      0.59888937904540
  H   4.49945295363063     -1.92381038929434      0.93215361542712
  H   3.18511867263782     -3.02850168795951      0.87834704952160
  C   1.42822573448765     -1.50312323842949     -0.10824858089117
  C   0.31901885220265     -0.72446283184759     -0.18048861258040
  H   1.28040383025875     -2.57033950054240     -0.21672988847212
  N   3.53378773530000      2.15362161699490     -0.67593663182196
  H   3.15992353967278      3.08283719793543     -0.75104662474685
  H   4.51163426349799      2.04832124576820     -0.47777015449464
