29
Coordinates from ORCA-job ./opt_b97-3c_parallel
  N   -0.56578622024956     -4.57951478387424      0.58301912948561
  C   -0.57413611471880     -3.42895834928385      0.43526751443841
  C   -0.53096509938665     -2.02497946519261      0.26100516784584
  C   -1.69500911976384     -1.30684933640360      0.24538366236809
  C   -1.68187183311609      0.11959371702816     -0.04918048497252
  C   -3.02076921611349      0.47993711771246     -0.10330493797164
  C   -3.61546499949243      1.72257937716908     -0.34766666613272
  N   -4.17087869150477      2.72510086296854     -0.54188354613048
  C   -3.74723128225567     -0.74211935141712      0.18455654479950
  N   -2.97348071459419     -1.78876190151190      0.38650751915310
  H   -4.82395979566783     -0.81680689691577      0.23653640291786
  C   -0.45451085662600      0.79552737726738     -0.18822562759038
  C   -0.46883529729336      2.16306339167776     -0.55354140219488
  N   -0.50449691569020      3.25673714133826     -0.94036376401845
  C   0.75776271121978      0.10258281734573     -0.04578990397373
  C   0.73368060819074     -1.35806886193398      0.01480995448515
  C   1.80719870222070     -2.17553963632265     -0.26117077147550
  C   3.10622811616833     -1.85443514443581     -0.68681436944697
  C   3.75277676036271     -0.66141112975043     -0.66067606525348
  C   3.29764666453022      0.56809396202007     -0.10938704854978
  N   4.25275397438705      1.50654267691393      0.08693247740941
  H   5.22137077478082      1.24990313209843      0.06308697257804
  H   4.02793019017607      2.38377100670344      0.52490829563839
  C   1.95839907449137      0.86373480393066      0.20268364408415
  C   1.80677240662290      2.09499411096968      0.88272725120895
  N   1.83982355478002      3.07143882901319      1.51391147710129
  H   4.77653785876339     -0.65829975733772     -1.01511605419183
  H   3.68277334052869     -2.69349455235436     -1.05484799589553
  H   1.60269371214967     -3.23700229152350     -0.22830851151676
