29
Coordinates from ORCA-job ./opt_b97-3c_parallel
  N   0.23641642517888      4.46623614374017      0.39277409971013
  C   0.17305310825120      3.31196138178344      0.29063618864189
  C   0.11614563345083      1.90352603626418      0.17158440363644
  C   -1.12661237959730      1.28995413879158      0.17281402517336
  C   -1.22490862011267     -0.14975553436900     -0.06139809362175
  C   -2.58559999184762     -0.41552963343005     -0.10903275944393
  C   -3.30987773561905     -1.59444902596117     -0.29234482330344
  N   -4.02873615629761     -2.49903739272022     -0.42945460497511
  C   -3.21505069396844      0.87201367381167      0.12688140286557
  N   -2.32976606183873      1.87360463236394      0.28795235868751
  N   -4.52468044422880      1.07292621540978      0.18486942180441
  H   -5.17286786883493      0.31543891716735      0.05826909638496
  H   -4.87647635086698      1.99773894848526      0.35996064540627
  C   -0.06139919004430     -0.92508477181453     -0.16629223337501
  C   -0.21353303287632     -2.28969195763299     -0.51139885792835
  N   -0.40369735757225     -3.36919027734322     -0.89291686712701
  C   1.20805613042843     -0.32745609111179     -0.03328828864636
  C   2.34779908796475     -1.16813059353203      0.19995764435836
  C   2.11913718691027     -2.44094865731987      0.80050003907653
  N   2.05099754220161     -3.43812235289351      1.39061112272303
  C   3.70093945149862     -0.92979342471688     -0.00997829151764
  C   4.33965683336571      0.23049837263835     -0.42086196778680
  C   3.77985110294251      1.48497064748937     -0.52425709278745
  C   2.47339739119856      1.86721060482975     -0.25814540816723
  C   1.30850928252834      1.13510159601814     -0.01660705872116
  H   2.31780760749743      2.93714509109689     -0.29507562590608
  H   4.44999500392508      2.29174665699532     -0.79174401291992
  H   5.40230717883298      0.14846732504110     -0.60853009059092
  H   4.34236374243332     -1.77920727697995      0.18176029925122
