27
Coordinates from ORCA-job ./opt_b97-3c_parallel
  N   -1.48349380932086     -3.58786210011844     -0.05339058341713
  C   -1.32554303919818     -2.43618148506822     -0.04001691704818
  C   -1.14627792810880     -1.03574795754596     -0.01929517581759
  C   -2.25900427631651     -0.20168986235091     -0.00377104501149
  C   -2.02210486708638      1.27000676996109      0.01985045726068
  N   -3.19696263143191      1.94628902653451      0.02922037203239
  C   -4.13021355251292      0.97887915064358      0.01335967473108
  C   -3.63065002436078     -0.34719072109246     -0.00649329100818
  H   -4.20345076430903     -1.25929627542200     -0.02131483480293
  H   -5.17786577085335      1.25067084793498      0.01644614982322
  N   -0.83637764942566      1.81952105986650      0.03284719429226
  C   0.25873939926259      1.00422596340585      0.02007979304333
  C   1.43705778815230      1.72636065388325      0.04632995211139
  C   2.79512196583407      1.35863942506486      0.03384212673637
  N   3.69364337843919      2.40308637210106      0.11576453989952
  H   3.35739494422475      3.31262351749015     -0.14688725750102
  H   4.63555699756841      2.22650723350132     -0.18584147085581
  C   3.30672384840670      0.07165492411011     -0.00198574714522
  C   2.62487956959456     -1.14595584122972     -0.03015946541195
  N   3.40042774327728     -2.28699320741176     -0.11840265528624
  H   2.95502956913446     -3.15518782407200      0.12242762688244
  H   4.34525415395215     -2.22538144561955      0.21782774225872
  C   1.24118166975785     -1.34110615497780     -0.03544716791704
  C   0.16042099067130     -0.46913085533388     -0.01224677128111
  H   0.95553328930868     -2.38643374265408     -0.06586083398600
  H   4.38952840493871     -0.00196647319510     -0.01238876224157
  H   1.24520276980139      2.79184968189463      0.08234449236007
