22
Coordinates from ORCA-job ./opt_b97-3c_parallel
  N   -0.89099009599530     -3.60858882753147      0.00153808060554
  C   -0.74565250032391     -2.45686972578469      0.00096803051400
  C   -0.60829121698499     -1.04794961559634      0.00034392430815
  C   -1.74730608949228     -0.24728151268674      0.00000450344868
  C   -1.55877454163452      1.23363771709649     -0.00053588317705
  N   -2.74993727829734      1.86696003091081     -0.00074760146354
  C   -3.65565141943324      0.87051406370789     -0.00040625028330
  C   -3.11132265455414     -0.43828055170465      0.00009418787684
  H   -3.65352100755888     -1.36886755639586      0.00044757869107
  H   -4.71040595769837      1.10986004851518     -0.00049807618245
  N   -0.38786166715962      1.82585915709944     -0.00077870717350
  C   0.71704978092310      1.04431970911841     -0.00051750731732
  C   1.90217423621619      1.77539589063486     -0.00094915893964
  C   3.24510663777261      1.39053973029536     -0.00089815709418
  N   3.81748741222794      0.20104362720414     -0.00026554243723
  C   3.15573831961952     -0.95580617983932      0.00042803352609
  C   1.80043522008295     -1.24700524748218      0.00054753664104
  C   0.66367276432512     -0.43291282797163      0.00010183114213
  H   1.59331792772406     -2.31112176381638      0.00108958096194
  H   3.80795193782000     -1.82244849954266      0.00094185007120
  H   3.95259199160880      2.21363949468608     -0.00143471369142
  H   1.72937467931229      2.84411969808319     -0.00144105392705
