24
Coordinates from ORCA-job ./opt_b97-3c_parallel
  N   -0.92931926612602     -3.49361981518155      0.00025295705214
  C   -0.80511440778092     -2.33992016426681      0.00020008744674
  C   -0.62103058104095     -0.93463166741473     -0.00004067212400
  C   -1.74651232589579     -0.11672053791581     -0.00024701158910
  C   -1.59456828092175      1.34725442514620     -0.00053145917245
  C   -2.90372171374430      1.83786128808541     -0.00068977729092
  C   -3.71791040815511      0.70047045763823     -0.00049292032028
  N   -3.03636535867080     -0.47814536405748     -0.00022667732620
  H   -4.79890167624904      0.68804235766793     -0.00053463152414
  H   -3.22173536130370      2.86721169616335     -0.00090940976282
  C   -0.33424734965739      1.89929403204680     -0.00057709635792
  C   0.81949598495236      1.09941433932689     -0.00035322719249
  C   2.03623735584673      1.79620898636908     -0.00041410122628
  C   3.35654342751797      1.38753046320720     -0.00024059212117
  C   3.85417713488332      0.09220884215404      0.00006302951366
  C   3.13480832515941     -1.08813208697607      0.00025569379318
  C   1.75836999993892     -1.26820607763633      0.00019033452778
  C   0.68759788483976     -0.37345766616407     -0.00006877193502
  H   1.46000683420125     -2.30900300494851      0.00038182751826
  H   3.71602132206746     -2.00106764703896      0.00048763088639
  H   4.93341689296228     -0.00529429577570      0.00016122057797
  H   4.09094558462779      2.18255312476046     -0.00035255621716
  H   1.91016727517908      2.87319019514868     -0.00063907183860
  H   -0.21129335243059      2.97505145486178     -0.00078004521758
