26
Coordinates from ORCA-job ./opt_b97-3c_parallel
  N   -2.00342702951277     -3.73276524678970      0.00852874901355
  C   -1.64138548973391     -2.62999260116717      0.00321559262282
  C   -1.17439763654320     -1.29430914303051     -0.00354060945224
  C   -2.09367253219360     -0.25706852422237     -0.00127071718365
  C   -1.64295421909044      1.13495018606629     -0.00028826215314
  N   -2.72185651776024      1.93607777444189      0.00706256686976
  C   -3.73905407609062      1.04625262334574      0.00919808368256
  N   -3.43440112135411     -0.27449909404719      0.00479851846537
  H   -4.76738084183752      1.37755498193984      0.01434450615165
  C   -0.29419950099525      1.44119658790858     -0.00550433248736
  C   0.10672429628473      2.79734286473033      0.00102538753955
  N   0.47580072792572      3.89825987013650      0.00980067668060
  C   0.68391780094315      0.38866136866112     -0.01467732717303
  C   2.00906527762745      0.80537707135893     -0.03331834281841
  C   3.24683319940850      0.14874928903295     -0.03578868757219
  N   4.36256142661472      0.94003323224011     -0.10350846038343
  H   4.27516912126545      1.92054703323492      0.09471055471568
  H   5.25374504991806      0.54183406565805      0.12950033099377
  C   3.43180915147197     -1.23861640272343     -0.01598295657466
  C   2.46588177404268     -2.21584307109264      0.00018318354148
  C   1.08279014329479     -2.11133736538763      0.00048763063589
  C   0.22614870462741     -1.01135185723100     -0.00712085875580
  H   0.57661621947247     -3.06727899947071      0.01001105794971
  H   2.83955828666066     -3.23160304819261      0.01434336323668
  H   4.45969253615415     -1.58360550740293     -0.02042622414842
  H   2.11142149459970      1.88375680080262     -0.04871059409673
