33
Coordinates from ORCA-job ./opt_b97-3c_parallel
  N   -4.84630179464972     -1.76976371569778      0.03071001990624
  C   -3.85833544779017     -1.14877868423719     -0.01281608639088
  C   -2.67709523120985     -0.39146919538326     -0.06496134127969
  C   -2.84990306319587      0.98954506443543     -0.35189209747318
  C   -1.91834937056907      1.99933287332567     -0.15523223554723
  C   -0.57169720416472      1.94215594961826      0.19346117173972
  N   -0.01415556698013      3.17345077779342      0.48783737781058
  H   -0.67325282837824      3.90509392966860      0.68607896599792
  H   0.75325675737981      3.16813389206315      1.13488962654191
  C   0.29956809617267      0.81339869353655      0.15092790746814
  C   1.67728314171487      1.08704663062451      0.10626572865348
  C   2.63586156378879      0.10434688200329      0.01967348837624
  C   2.21218873975924     -1.29289306505024     -0.04023233431224
  C   3.36620591509405     -2.07849475834455     -0.19692527768483
  C   4.46699454538642     -1.21430275984237     -0.22995881629977
  C   4.03832068215879      0.12382694546519     -0.11767641352518
  N   4.85776586454746      1.25079438955616     -0.06383723621290
  H   4.43977840206412      2.06989484021343     -0.47842324876249
  H   5.76642419141607      1.09649122185113     -0.47230184090972
  H   5.49863366382097     -1.52087227851958     -0.33383571052003
  H   3.40247423747588     -3.15326208784873     -0.28187845095754
  C   0.87066788809973     -1.57955665257759      0.00352155191165
  C   -0.12872307136059     -0.58894662281326      0.11470232549637
  C   -1.46570517551818     -1.07036012319641      0.24187534545006
  N   -1.61927511631754     -2.37822240479195      0.60290353512048
  H   -2.54722034621463     -2.74078011935182      0.73487698819102
  H   -0.90887076301948     -2.80093886979302      1.16818615751064
  H   0.57355124912995     -2.60921897610813     -0.13479008120881
  H   1.99947077506798      2.11750063254077      0.05259814662137
  H   -2.32007912826570      3.00218917939354     -0.25171892641546
  N   -4.08475793069299      1.37666026155624     -0.78573804730688
  H   -4.85727132236850      0.73775922341601     -0.70558172433445
  H   -4.32479207388096      2.34931445889423     -0.73550810035487
