24
Coordinates from ORCA-job ./opt_b97-3c_parallel
  N   -3.04813270124008     -3.05698096149482     -0.55518446731786
  C   -2.35324319929936     -2.14259801027450     -0.39651210696316
  C   -1.52435214428572     -1.00851887806898     -0.23306224001479
  C   -2.04061049586583      0.27003184517043     -0.22888355705727
  C   -1.19657620644275      1.41263913201787      0.15154609384719
  N   -1.95905072432544      2.49469013740686      0.24165289755656
  C   -3.19808401678507      2.01204445634442     -0.09417585854099
  N   -3.30831974495187      0.70588155452060     -0.37546850887093
  H   -4.05342009199761      2.67045567072082     -0.12752545014604
  C   0.18814792049915      1.26778487520788      0.32357989553711
  C   0.94298103348937      2.39631063191549      0.72066749607443
  N   1.51751109232534      3.31848113596470      1.12693033609342
  C   0.76144098284969     -0.00210254301995      0.13315782836340
  C   -0.13513048639193     -1.19473586926210      0.06811374111123
  N   0.18871208383457     -2.43509875076554      0.36340655001508
  C   1.34877087591502     -3.01539123541690      0.59784938496535
  C   2.61120666173404     -2.56324812358683      0.24233852530957
  C   2.93582538535506     -1.29135612579064     -0.18617648682268
  C   2.13557634003355     -0.14339258456646     -0.19543474227743
  C   2.83185995609782      0.99347918682622     -0.69954896771680
  N   3.46132865855192      1.82850104502091     -1.20207583618147
  H   3.95695210423526     -1.13683472429565     -0.50557463101395
  H   3.41573729829532     -3.28640898463954      0.28715944947043
  H   1.26841666776374     -4.01212954272872      1.01746618128012
