24
Coordinates from ORCA-job ./opt_b97-3c_parallel
  N   1.71646085657231      3.36331018630185     -0.46018992179983
  C   1.38585831204116      2.26250446794413     -0.30709796549899
  C   1.01703554895941      0.90669202405990     -0.13594330861524
  C   2.00766408374730     -0.10037054538597     -0.16495743704556
  C   1.64814030365521     -1.50279612612968      0.15898232540649
  C   2.88218365994193     -2.20539060178830      0.10780894427097
  C   3.81895486429466     -1.25635439567270     -0.21627582477918
  N   3.29872616246737      0.02706554947379     -0.38624790051431
  H   4.88026167265146     -1.40816268521250     -0.34686233273188
  H   3.04148955880385     -3.25622430145106      0.28119618318979
  C   0.35385976072777     -1.84399427594460      0.38530679394244
  C   -0.67707587798202     -0.85959134680678      0.27705456147570
  C   -1.95938069559330     -1.31993399600860      0.20137710699079
  C   -3.16872152970075     -0.59160883201742     -0.05703967344708
  N   -3.39684034807956      0.68890751725870      0.12430838491062
  C   -2.45977386794858      1.60001830888289      0.43165757312576
  N   -1.15926287804484      1.60422062145521      0.33362202191744
  C   -0.31501936057803      0.57876924986914      0.12408296380259
  H   -2.88330475678972      2.55061589147552      0.73884131462641
  N   -4.23659361256775     -1.33730259639953     -0.44283061826752
  H   -4.11189594184107     -2.25513768723870     -0.82737850314741
  H   -5.06607144895475     -0.83459729591435     -0.70746046020542
  H   -2.08188457664561     -2.39493863090528      0.28243660081939
  H   0.06505552126357     -2.86995509734566      0.57785381377405
