31
Coordinates from ORCA-job ./opt_b97-3c_parallel
  N   -3.85722986218124     -3.17612082165287     -0.79010442483610
  C   -3.14978429745406     -2.28060956024884     -0.56370784473127
  C   -2.24512174690179     -1.24083495576400     -0.25028035884504
  C   -2.72793274514399      0.04640071934395     -0.33725152077050
  C   -2.15292577132707      1.24455128526374      0.06695436433228
  C   -3.02283071221896      2.35521508797693      0.14981099021543
  N   -3.69113492244647      3.30384416835177      0.23863435581268
  C   -0.78858457043770      1.47817367250098      0.41447998943887
  N   -0.53698708205300      2.65396502463438      1.01040127282381
  H   -1.26676647442744      3.34036017093476      1.10961150580700
  H   0.41546591377624      2.95409784534972      1.14955423685512
  C   0.31509608991518      0.59560159314855      0.13276456813336
  C   1.58896752244970      1.17328344948573     -0.10766270127130
  N   1.75540056283706      2.54470232705371     -0.33053475143043
  H   1.06055266107172      2.95946794821843     -0.93307556072127
  H   2.67729202286093      2.75966222937930     -0.67289152791612
  C   2.74234598831855      0.38893132049777     -0.10083964308623
  C   2.64373919101341     -1.03668889301908      0.10676794264247
  C   3.96240337995868     -1.52047688955530     -0.00902115881195
  N   4.82226434241865     -0.51696256755365     -0.24588918920782
  C   4.10067030237783      0.63286790994527     -0.32443454739818
  H   4.60588339059017      1.56933905283661     -0.51120979293265
  H   4.30386660044860     -2.54057191590152      0.08289819472087
  C   1.41039745534535     -1.62171481490455      0.26443277222727
  C   0.22467463027518     -0.87038899154247      0.25733401071643
  C   -0.97439400618050     -1.64053968802929      0.29556385590780
  N   -0.94463728469792     -2.88798646549222      0.79717601037362
  H   -0.14585527509422     -3.23823923822281      1.28790139201945
  H   -1.73501988146048     -3.50147826563036      0.69789245320111
  H   1.36524339795001     -2.70094309876283      0.25771764078031
  H   -3.75383262888410      0.12516894475853     -0.67117506925064
