27
Coordinates from ORCA-job ./opt_b97-3c_parallel
  N   -5.74072715678074     -0.39807621526496     -0.54753993967535
  C   -4.58753212756003     -0.31655867828875     -0.42856318393273
  C   -3.18712176049174     -0.29058077650833     -0.23842370889384
  C   -2.56309528788587     -1.49773420867877      0.22485561159914
  N   -1.29767538218785     -1.80699185529448      0.05283923430591
  C   -0.20086289919521     -1.10663730785503     -0.15307560420887
  N   0.86006086514874     -1.84696535532260     -0.51756750691017
  C   2.04697940025847     -1.29323964748954     -0.37825503217010
  N   3.23395577426909     -1.84482284607550     -0.63844720990104
  C   4.09400955427872     -0.90780519881686     -0.16544508334960
  N   5.40461012848250     -1.06538447192057     -0.23158470625834
  H   5.79083418724057     -1.89279998932002     -0.64977493962651
  H   6.01074731318670     -0.35103503349513      0.13088852506462
  N   3.56749234903560      0.24180797375281      0.40097062325481
  C   2.27396318979871      0.03972931140242      0.25059703286854
  C   1.16929859934624      0.86445580782197      0.49009389849025
  C   1.36164260023810      2.13178493033950      1.08286473805940
  N   1.56215068453883      3.12290236667628      1.65224173546408
  C   -0.09089326635252      0.36316336732049      0.10111821478726
  C   -1.16689088776743      1.21885562824950     -0.22401387419611
  C   -0.89190311628364      2.59087535023744     -0.48497785789076
  N   -0.74532040002488      3.70131393856732     -0.78862164450411
  C   -2.51258525165586      0.89250821499437     -0.44987596286483
  H   -3.12404274748691      1.71548526743184     -0.79165216656669
  N   -3.32638881359588     -2.44331547199260      0.79894949651115
  H   -2.91934470333213     -3.34782095902212      0.95807572516023
  H   -4.32193937591814     -2.33899872383634      0.88089098450386
