28
Coordinates from ORCA-job ./opt_b97-3c_parallel
  N   -5.68455402241930     -0.12595481134309      0.00017611928766
  C   -4.52267188773182     -0.09009080272621     -0.00088469228427
  C   -3.10766520313486     -0.13291752575130     -0.00191702107061
  C   -2.45206159516237      1.09043208715773     -0.00018918605677
  C   -1.09942080547722      1.41635254751590      0.00014379507085
  C   -0.88146904432525      2.82494295839211      0.00189184267159
  N   -0.73415498778824      3.97633039978646      0.00332186668195
  C   0.06012060695011      0.59087568626482     -0.00090041391521
  C   0.00960018417546     -0.89658211400200     -0.00210709276351
  C   -1.14424841347607     -1.68105761708905     -0.00382955073461
  C   -2.51597858971869     -1.42444294403435     -0.00417755696865
  N   -3.34004932458961     -2.50263412094299     -0.00913283157344
  H   -4.33853207939492     -2.40158826393409      0.00180643802091
  H   -2.96464462029856     -3.43093497406479      0.00201149150181
  H   -0.88381613750284     -2.73278070243841     -0.00551172132398
  N   1.12573160808167     -1.65256132341435     -0.00219619053583
  C   2.30429863582059     -1.04129310846927     -0.00139990750377
  C   2.45279772228133      0.43447195340420     -0.00054526252654
  N   3.73220413509492      0.80260274625156     -0.00002498425660
  C   4.41947414927096     -0.38963322975516     -0.00048423832110
  N   5.75275302127394     -0.35117565018231     -0.00011084209102
  H   6.21110838191496      0.54284169496536      0.00028761345326
  H   6.30863961116193     -1.18496282030527     -0.00063760789919
  C   3.59318679858916     -1.54290477827407     -0.00129849673193
  H   3.90324405785455     -2.57380497028033     -0.00180079832603
  C   1.30913243799142      1.20838559652774     -0.00024945031606
  H   1.39192565005437      2.28526515418032      0.00059540799787
  H   -3.11420824749566      1.94476608356079      0.00138689701322
