23
Coordinates from ORCA-job ./opt_b97-3c_parallel
  N   -0.87552276974920     -3.49113389704660      0.00045304128647
  C   -0.72650804725011     -2.34154838417333      0.00082066009701
  C   -0.59695143306440     -0.92992636686389      0.00090087768928
  C   -1.73013363796771     -0.12662953667075      0.00112043940995
  N   -3.01864287137212     -0.50248630650014      0.00133258352041
  C   -3.71100168185129      0.66397743354841      0.00145439066957
  C   -2.90763562219416      1.81624894323374      0.00133342989694
  C   -1.59719667736611      1.34440557885640      0.00110636797585
  C   -0.34416971013265      1.92214793311126      0.00091206492117
  C   0.81651898336271      1.14319376776365      0.00071268456709
  C   2.03309518474516      1.83005066284907      0.00058427921064
  C   3.34216366305148      1.37786692786179      0.00040339226230
  C   3.77650880291766      0.06331685758961      0.00027501307282
  C   2.99690164867672     -1.08820959825963      0.00030504398937
  N   1.68298872024659     -1.24176312741192      0.00051247706895
  C   0.70333032261170     -0.35026946510738      0.00070891340351
  H   3.53776278726036     -2.02924892421247      0.00015235588529
  H   4.84803766152143     -0.09962107220292      0.00012417930520
  H   4.10743731911317      2.14305097191607      0.00034990025508
  H   1.92774036903218      2.90939500135452      0.00063569626647
  H   -0.24150483486758      3.00028914602310      0.00091340786307
  H   -3.24033967496065      2.84090807306564      0.00139435007725
  H   -4.79194754666317      0.64084688247576      0.00162631470632
