27
Coordinates from ORCA-job ./opt_b97-3c_parallel
  N   -2.29167624798679     -4.35615285999171     -0.63871133205914
  C   -2.20000684218854     -3.21205613512114     -0.45762933661883
  C   -2.10709771266244     -1.83132167804751     -0.23902510703814
  C   -3.19412745190839     -0.94050140305674     -0.06043506450873
  C   -2.74315331426756      0.36742916859373      0.15695968807048
  C   -3.56271571586624      1.48480423356984      0.36922239905052
  N   -4.25934463382409      2.39793840180682      0.54693850024550
  C   -1.32560744145176      0.32976535561646      0.10499727383102
  C   -0.92663017316547     -1.07751625141499     -0.13010420564244
  N   0.32187324347014     -1.50731976711961     -0.15405478458572
  C   1.31121213249523     -0.61735505734793     -0.02931339840618
  N   2.50670159528207     -1.17509376882761      0.15104173903096
  C   3.72672699805305     -0.69532359970569      0.14771494988630
  N   4.69099049812708     -1.55460059818945      0.55831871657689
  H   5.62009889475914     -1.24032759824764      0.76482423452726
  H   4.39822462337328     -2.44534880765752      0.92021812497176
  C   4.15780285938936      0.57474519289887     -0.34906185843346
  C   3.37013005473911      1.66942303298763     -0.50261148902412
  C   1.99286845467036      1.80505341451159     -0.24207360743352
  C   1.03951346686395      0.84514757922281     -0.00053450962783
  C   -0.32938405754592      1.27136743861168      0.16038969624848
  C   -0.61147376915480      2.65130417729511      0.30595234935817
  N   -0.78320251366838      3.79288088059281      0.42248112529830
  H   1.63021733551208      2.82432008705656     -0.28745865081109
  H   3.86321742054819      2.57194638528820     -0.84019450258389
  H   5.20942999963483      0.67266855065080     -0.59167169296053
  H   -4.23191606682757     -1.23107834657539     -0.08655832676201
