29
Coordinates from ORCA-job ./opt_b97-3c_parallel
  N   -5.23701151419948     -1.14866936654997      0.60591857287170
  C   -4.12000605148865     -0.91545599652099      0.38416220741275
  C   -2.77599121555117     -0.55569309683691      0.13081909534014
  C   -1.91422104640926     -1.60503435472239     -0.24255148625161
  C   -0.54860689109220     -1.64340965436252     -0.35492267991387
  C   -0.04612450636954     -2.86552859227925     -0.87718866814768
  N   0.30508301611580     -3.85250220041179     -1.37816508458549
  C   0.40268085069328     -0.59196853548030     -0.06730781511902
  C   0.05263520513926      0.80870350387752     -0.24246230591071
  N   1.01760249519401      1.78298297147728     -0.43051408613609
  C   2.25435314715120      1.47214145015004     -0.21399567566915
  C   2.69947358603360      0.13627920804035      0.22103244731868
  C   4.04391907528260      0.20657676618214      0.43631317376066
  C   4.47573572293339      1.56649353359706      0.12055498456197
  C   3.42016125160138      2.32745001267580     -0.27301648930945
  H   3.41132405294667      3.36636407623562     -0.55342413872823
  H   5.49867055153543      1.90157218162053      0.19813056937964
  H   4.68938285731622     -0.59391535736482      0.76013288297696
  C   1.72973948623610     -0.88837013919407      0.24446209539134
  C   2.16288043985669     -2.17577521243484      0.64158243853872
  N   2.60570738971453     -3.16467239712828      1.05707445428967
  C   -1.21108957954326      1.39002316092019     -0.17498997065151
  C   -1.24170235477144      2.80084155052176     -0.36119070614614
  N   -1.47524431901663      3.93386879890923     -0.46994682248476
  C   -2.49065992954681      0.81814962381416      0.18230555380568
  N   -3.46618389800150      1.67585382341923      0.52418814495765
  H   -4.40009971695904      1.34374138638539      0.69411847355539
  H   -3.32788125657525      2.66954989374263      0.45824528673271
  H   -2.41871113342612     -2.53735076688245     -0.45400413504017
