28
Coordinates from ORCA-job ./opt_b97-3c_parallel
  N   -3.23291804300579     -3.86618305027389     -1.21185323175085
  C   -2.93488382700379     -2.79589107245836     -0.87034389963349
  C   -2.60054679312921     -1.49962832274109     -0.46062891484298
  C   -3.52990546370279     -0.44868429224885     -0.18854484939189
  C   -2.87478968371281      0.70730861685941      0.21496139227379
  C   -3.48108175688429      1.92427199839648      0.55360240854845
  N   -3.99377110641442      2.92901991910153      0.83431633190239
  C   -1.47310413314007      0.41617219259663      0.19309171823148
  C   -1.31733072358928     -1.00171156057658     -0.21885884748584
  N   -0.16106959674507     -1.64791791993512     -0.26020788193258
  C   0.95516115919676     -0.97384586606340      0.00935043682609
  N   2.03481987681542     -1.71477387846745      0.22862073281371
  C   3.29430319177628     -1.33454073715602      0.35268573987279
  N   3.93934855519626     -0.27483425303691     -0.18631891528879
  C   3.36361172962916      0.87710462879258     -0.41000769259829
  N   4.11673083908897      1.82861628720142     -0.99993982648469
  H   5.03617124343431      1.57997795710218     -1.31943996498825
  H   3.71925299582483      2.69138055401624     -1.32017228828409
  C   2.03486229281173      1.29144231789030     -0.02757064911858
  C   0.94330769762814      0.50892701348880      0.16255658850070
  C   -0.34376663780134      1.15527923088972      0.38563835359124
  C   -0.36789102103539      2.53771949860623      0.68214197266548
  N   -0.29913943975988      3.67274698930632      0.91475729747092
  H   1.88975102760145      2.36342642615946      0.03596495300274
  N   4.09745554739071     -2.19369095656051      1.01054125302659
  H   3.73254806038156     -3.09982827057583      1.24295384531881
  H   5.09128180926997     -2.06658704537183      0.95768119150650
  H   -4.59928802992144     -0.54543122584149     -0.28496849085133
