28
Coordinates from ORCA-job ./opt_b97-3c_parallel
  N   -3.82999432513014     -3.28334703017866      0.80702232352230
  C   -3.16707424144184     -2.35740160795495      0.56983212250200
  C   -2.46632388528828     -1.18315654422927      0.28933682892706
  C   -1.09269391919455     -0.99697987323947      0.07154899444355
  N   -0.15565194949101     -1.91706893633837     -0.02423284536877
  C   1.10443455891195     -1.52050239240983     -0.25410702974137
  N   1.90608699078986     -2.49253388313734     -0.67462966822580
  C   3.20917146858525     -2.56441347221258     -0.77593074838058
  C   4.17239627436754     -1.73790464753939     -0.19505963398077
  C   3.95263208995587     -0.48599793614360      0.32821507920723
  C   2.77610749645020      0.28272168044980      0.29700419439884
  C   2.94665915445143      1.56364617326984      0.89603112458522
  N   3.16006112125316      2.54846306226678      1.47141988980970
  C   1.48797385941830     -0.08782737407017     -0.14985464996574
  C   0.45828197249522      0.86988687178293     -0.31805035527725
  C   0.72933160352662      2.22582155485514     -0.61458084346135
  N   0.90863363638151      3.32371835173218     -0.94476698680917
  C   -0.86272449542574      0.43836278905001     -0.20800266123394
  C   -2.09721209926048      1.07684338004975     -0.22740398726614
  C   -2.44311288471556      2.41082239757024     -0.45534323452347
  N   -2.85985279292517      3.48381560798078     -0.62554561516787
  C   -3.09089293176010      0.08291961094706      0.10341021738891
  N   -4.38573292975002      0.32806925410767      0.20726644496845
  H   -5.03288695268097     -0.40651082537453      0.44052014070042
  H   -4.74947933302968      1.25326770537562      0.04808618253185
  H   4.80660437946718      0.01127797578922      0.76722502298829
  H   5.18824298001878     -2.11127136447179     -0.17779118873887
  H   3.56598242861748     -3.43567450142624     -1.31697544943187
