28
Coordinates from ORCA-job ./opt_b97-3c_parallel
  N   -5.43156008872385     -1.61152677841073     -0.00187658272177
  C   -4.31578268436199     -1.28754356299281     -0.00116810445080
  C   -2.97837979737012     -0.82047318837294     -0.00043834653019
  C   -1.99543313257028     -1.81716666102608     -0.00253784000666
  C   -0.61914752301861     -1.74312225439067     -0.00264448236231
  C   0.03994668543955     -3.00500560987923     -0.00527117458016
  N   0.47838300413114     -4.07905193475299     -0.00745265932928
  C   0.23451425889954     -0.59526706603517     -0.00055352445178
  N   1.53377311888885     -0.87661281128163     -0.00143518185551
  C   2.38990240315489      0.13827399541649      0.00039438121159
  C   1.91566428804997      1.53916439726750      0.00337411128079
  N   0.64863674967109      1.83254956209820      0.00427464472765
  C   -0.24671634230098      0.79011262969498      0.00233862386048
  C   -1.56009919425881      1.26498626494795      0.00350426120120
  C   -1.67342205925965      2.68563585915095      0.00638250605300
  N   -1.98165352613210      3.80559415595909      0.00893135117706
  C   -2.82762760298663      0.58391349642566      0.00229645292971
  N   -3.93401053338969      1.34491744328330      0.00387994880259
  H   -4.84756007822368      0.92536848061323      0.00326457611501
  H   -3.87617145946084      2.34878521994977      0.00600650177421
  C   3.05726981646269      2.39982942097341      0.00489300856014
  C   4.15569151413578      1.58999372256553      0.00298482566454
  C   3.77302152777567      0.17779146876184      0.00017437581558
  C   4.66772042988105     -0.89396042900712     -0.00220288421215
  N   5.43856514646033     -1.76530992878588     -0.00424452112987
  H   5.18413547713181      1.91514698275357      0.00342963189844
  H   3.03440726066748      3.47589200257122      0.00707226221531
  H   -2.39161549249190     -2.82229389749608     -0.00443621635575
