32
Coordinates from ORCA-job ./opt_b97-3c_parallel
  N   -6.22659991905207     -1.03428174222800     -0.00696923343666
  C   -5.08860120308303     -0.80986263230419     -0.00616270031732
  C   -3.69354575916776     -0.53185416111754     -0.00526583323067
  C   -3.31185886648778      0.73934724048368     -0.43361101224473
  C   -2.05935027515216      1.33446123570340     -0.37463530337682
  C   -2.06434417638984      2.65125408129910     -0.92111689540492
  N   -2.13855270873503      3.67497779916444     -1.46243282722165
  C   -0.79967169192068      0.80515667944753      0.04487441218299
  C   0.25159080658101      1.68482097843586      0.34955811232477
  C   0.04276723104735      3.03027030446241      0.73535573834638
  N   -0.01263161602557      4.11357920346143      1.14832132522542
  C   1.58554505185761      1.24575517144264      0.31729135704313
  C   1.87976400245011     -0.12996149956885     -0.11749156769538
  C   0.83134626134140     -1.03997039846582     -0.25492456154024
  C   1.12974648001847     -2.34950951074710     -0.70265686821221
  N   1.41032847144997     -3.37318503060737     -1.17145647073827
  C   -0.50301203392050     -0.63775173097358      0.00010144079414
  C   -1.46186755016397     -1.61993801629197      0.37051980577486
  C   -0.97522823445840     -2.85262341334838      0.89800841625379
  N   -0.67752423385291     -3.83741069359942      1.43452752402109
  C   -2.85422701483136     -1.55519535668674      0.41674492181103
  H   -3.34305779565117     -2.44846004086155      0.77692407401879
  C   3.26291017077326     -0.25113115631833     -0.21595293807937
  C   4.08021091701159     -1.32736438128073     -0.56731107718294
  N   4.88074934425128     -2.12717582119555     -0.83812731996136
  C   3.81846268745719      1.01962890362367      0.19115073245236
  C   2.76913356825489      1.91839973215684      0.51929575900461
  H   2.88317683422283      2.94456420598659      0.82585783761041
  N   5.12000891379803      1.26745655195233      0.23395377703566
  H   5.78568963584089      0.55845867820276     -0.02926012399043
  H   5.47655128702281      2.15579159919553      0.53745143674361
  H   -4.10468734350123      1.36723526826798     -0.81297717639473
