29
Coordinates from ORCA-job ./opt_b97-3c_parallel
  N   5.72288665415174      1.21124732259785      0.89943014863289
  C   4.61677436531658      1.01283356347593      0.61194030949591
  C   3.26398172562354      0.74921223522199      0.26202333184718
  C   2.38672573273979      1.79987573362923      0.32059058969764
  C   1.01223615554740      1.82500357822333     -0.03193450891984
  C   0.51879826952529      3.15659938097423     -0.14904529829117
  N   0.18389300752756      4.26353117042632     -0.24292681950185
  C   0.10280901042723      0.76837476044587     -0.16395035840479
  C   -1.27615503203153      1.13403269487187     -0.30046573752182
  C   -2.25180012093630      0.21978426613550     -0.09510114073274
  C   -1.92786079685167     -1.15350224228784      0.25367070915448
  C   -3.10695123945379     -1.82078550423800      0.49662507845685
  C   -4.18843931155682     -0.90509293862569      0.29104828648645
  C   -3.69639673722058      0.33522259878613     -0.06729523854049
  C   -4.41541865154638      1.50338135684027     -0.34395663668992
  N   -4.98202934611412      2.49103768413443     -0.57881934093658
  H   -5.23350860477554     -1.14624524705307      0.39964973102997
  H   -3.20934077152015     -2.85507382245887      0.78171357967847
  C   -0.57307364069630     -1.55808439427355      0.23546646764549
  C   -0.31158297596565     -2.91028739112925      0.56965236560974
  N   -0.18888465447172     -4.00570608472888      0.93124550038587
  C   0.44360447819130     -0.64936340606735     -0.04329210290578
  C   1.76683708363713     -1.14524456205027     -0.39515354874081
  C   1.82725560877391     -2.40150527963542     -1.06427461029316
  N   1.92415258252593     -3.37343814329974     -1.69084883507357
  C   2.98708835511106     -0.55586535427169     -0.22722724437059
  H   3.84913663338291     -1.14594227378931     -0.50326797995094
  H   -1.53135755151206      2.16794786869648     -0.48438040551367
  H   2.80081150559162      2.75449389858561      0.61204058821184
