38
Coordinates from ORCA-job ./opt_b97-3c_parallel
  N   -4.40194437053524     -2.81829092991210      1.39988851581904
  C   -3.66423258447006     -2.03389281751707      0.95659853869883
  C   -2.71713873072770     -1.12994603337495      0.42909709565960
  C   -3.22060205045082     -0.03887617898036     -0.27773485578842
  C   -2.57977482298608      1.09867824939558     -0.71295337508879
  C   -3.34770332703089      1.99840051562134     -1.48580117333873
  N   -3.94529229432352      2.76973445030566     -2.12116936474230
  C   -1.28784131050307      1.56907365266724     -0.24788507858173
  N   -1.16527771191126      2.92580730669750     -0.26227382610847
  H   -1.85455673303132      3.45498433393805     -0.76784312446944
  H   -0.24843244057941      3.33467844164929     -0.17907690262363
  C   -0.25298879544873      0.73116347802123      0.18206769910091
  C   -0.25941642591486     -0.74478230282592     -0.03884891045165
  C   -1.35034644224157     -1.53369992198583      0.45237593824615
  N   -1.10331007631114     -2.74677301749797      0.98263684411962
  H   -1.86514701343924     -3.36333094974550      1.20924060054931
  H   -0.18015490296579     -3.14100641878222      0.88443280053562
  C   0.94999835433111     -1.36486353722648     -0.40272924772573
  N   1.03710476127261     -2.73055115553261     -0.67332699762233
  H   1.97248784457731     -3.01455031960655     -0.93990652434511
  H   0.32703346189248     -3.09197506678758     -1.28998261268892
  C   2.14743400386183     -0.63516273923696     -0.35601712089130
  C   2.17341182154301      0.65236382141014      0.29951516313131
  C   3.52986201377425      1.01688276626761      0.47589530425113
  N   3.95458910778065      2.23677666314447      1.06756753613158
  H   4.90368586040109      2.16322788242608      1.40634718106827
  H   3.93455499438415      3.00151481912253      0.40233268062749
  C   4.31830807695293     -0.00282782656970     -0.06121095154650
  C   3.47972044595815     -1.01423820310979     -0.58006412864205
  N   3.88381688028724     -2.22373235997659     -1.20364212102053
  H   4.84118962419152     -2.45175626376898     -0.97633929301700
  H   3.81899686876354     -2.16246596702739     -2.21259317157748
  H   5.39846632642935     -0.00125605445175     -0.11226307321999
  C   0.99459844907901      1.31131736611020      0.60453779303149
  N   1.05971697689318      2.55737018815648      1.19940933776204
  H   0.29861160853814      2.76811144222419      1.82602445598969
  H   1.97299580207530      2.74796251615174      1.60030917174512
  H   -4.27992879481922     -0.08488391829508     -0.49758224597678
