33
Coordinates from ORCA-job ./opt_b97-3c_parallel
  N   -6.19904464671310     -0.70354269437308      0.40202326527945
  C   -5.05543218232842     -0.55230873002318      0.26250820025516
  C   -3.67436376960231     -0.27969230355792      0.11412031460751
  C   -3.27823356843242      1.06893241505790      0.27615614982534
  C   -1.97944024178619      1.55404131592807      0.04692214023510
  C   -0.74262003042412      0.95810901994657     -0.12564473982290
  C   0.36490289600988      1.85775350451099     -0.28195312326110
  C   0.14441081243581      3.24434908795001     -0.42806628782108
  N   -0.01441737619551      4.38916452289322     -0.55060822013937
  C   1.67691596962337      1.41189021229741     -0.21291125477299
  C   1.93224187720184     -0.00876475228451      0.07245601304631
  C   3.30216435654465     -0.16416699332844      0.19768068436968
  C   4.09664159770649     -1.28282168279383      0.45058132367753
  N   4.88805510800650     -2.11355019788226      0.64834939492987
  C   3.89923139718699      1.15009268374318     -0.03777042408453
  C   2.89135732580062      2.08875750383026     -0.28371885128141
  H   3.02723822056053      3.14092651866991     -0.46807581797200
  N   5.21521230271212      1.34534632110525     -0.00396736276097
  H   5.61635415203242      2.24772108696856     -0.18149771870191
  H   5.84106818635780      0.58010551728741      0.18497672619015
  C   0.85848646473177     -0.91050987090538      0.14141101904745
  C   1.14490097834955     -2.24000914181622      0.53560035014450
  N   1.42466738815625     -3.28191963638184      0.96338119600479
  C   -0.46376664717173     -0.48267715496968     -0.08025525196868
  C   -1.47856708069872     -1.44798962155003     -0.36360693550085
  C   -1.07868403516691     -2.69986971464130     -0.91211885839107
  N   -0.85206321587978     -3.69790084091666     -1.46003099929792
  C   -2.85884863062443     -1.34495177948069     -0.25175235636013
  H   -3.39233033297594     -2.25833429510659     -0.47355202944321
  H   -1.93531810819781      2.63603028921414      0.06214305008913
  N   -4.21296645607922      1.98279849681578      0.62139133366466
  H   -5.18313607415647      1.73199885373935      0.69684660578602
  H   -3.98765203657978      2.95944525213868      0.64786707022616
