29
Coordinates from ORCA-job ./opt_b97-3c_parallel
  N   5.83252924607824      1.03607740850799     -0.00049747085444
  C   4.71497112749931      0.72021113699446     -0.00035352197422
  C   3.32995112449239      0.41911638610576     -0.00024796281141
  C   2.99131766691017     -0.92979757360079      0.00005868783932
  C   1.75564678240101     -1.56599805414667      0.00022895321623
  C   1.88764583027259     -2.98618911087012      0.00050863721075
  N   2.04499636803973     -4.13555254705093      0.00073753005361
  C   0.43235195138735     -1.04331000953216      0.00016814396514
  C   -0.61842317187161     -1.96053756378875      0.00039804991992
  C   -1.93296020903014     -1.54854835424616      0.00038890020086
  C   -2.26875920230603     -0.11830905550750      0.00013953934013
  C   -3.67723130701818     -0.08298632389107      0.00021625988447
  C   -4.53590977387846      1.02366635641773      0.00007205627691
  N   -5.27590244342743      1.91963873587860     -0.00006585772836
  C   -4.06750879652063     -1.44221474672582      0.00050566528991
  N   -3.03718326947765     -2.31476997564410      0.00060631109797
  H   -5.08806138050459     -1.79538435797773      0.00064027437696
  C   -1.25368844741382      0.81879560985632     -0.00011606662278
  C   -1.56986887141320      2.19832510459171     -0.00042691120126
  N   -1.78917233088027      3.33862510375487     -0.00099793907864
  C   0.12975595864786      0.40595628165812     -0.00010086839426
  C   1.04611012394114      1.43729959606705     -0.00037939010956
  C   2.45198939251058      1.52606607912231     -0.00047309492019
  N   2.97018417882876      2.77422433728244     -0.00081691109126
  H   2.37381448211675      3.58037624086652     -0.00086925869920
  H   3.96219960541629      2.93279273848202     -0.00081197223081
  H   0.58311202677843      2.41610210203886     -0.00057351510429
  H   -0.41665601464096     -3.02102832076738      0.00059700581980
  H   3.83977519046238     -1.59853906227555      0.00018132722870
