29
Coordinates from ORCA-job ./opt_b97-3c_parallel
  N   5.82342016290414      0.08685731249678     -0.00071041435165
  C   4.66467716606625     -0.00194838940662     -0.00014433405361
  C   3.24937078963814     -0.02250822343503      0.00024476057368
  C   2.64238426597781     -1.27431740511832      0.00006262219010
  C   1.30901500781958     -1.65405067256308      0.00031382989777
  C   1.15683750806568     -3.07136594404445      0.00007281570279
  N   1.07474924578558     -4.22906770828332      0.00008749466704
  C   0.10532992530812     -0.88030589818519      0.00077976002566
  C   -1.09742808567667     -1.57687550540419      0.00091832346939
  C   -2.31011359173576     -0.90621808913525      0.00134274736596
  C   -2.35065251191347      0.56034131052582      0.00162047527487
  N   -3.62269993696860      0.96733518802233      0.00201287938638
  C   -4.29616506656630     -0.21477416179117      0.00197334521692
  N   -5.62306029846666     -0.25946772241893      0.00231329647630
  H   -6.09330546832247     -1.14572739255546      0.00234262967602
  H   -6.15225578861732      0.59316993016332      0.00267605337020
  N   -3.55573805161860     -1.37371495693550      0.00156715317744
  C   -1.16693874263281      1.28241758316442      0.00148555424305
  C   -1.22804305815835      2.69352875461437      0.00180526733236
  N   -1.25000648606500      3.85504601890812      0.00222429288498
  C   0.09983519510191      0.60126483463877      0.00109368850380
  C   1.20929230047379      1.42774442530647      0.00114030472112
  C   2.60094484574945      1.23367580736790      0.00082686515253
  N   3.35986357408352      2.35312459388764      0.00123174696696
  H   2.93615020724233      3.26157956862973      0.00087195013802
  H   4.36316487461360      2.30711362943536      0.00037011697228
  H   0.95045323322180      2.47914230378953      0.00151553835131
  H   -1.09999320892845     -2.65609517539976      0.00070646084551
  H   3.33987906601872     -2.09996147757432     -0.00034469167716
