31
Coordinates from ORCA-job ./opt_b97-3c_parallel
  N   -6.11967544487425     -0.54276243283865     -0.15832244220842
  C   -4.95902431809643     -0.49517187282957     -0.11346135242208
  C   -3.55399220205063     -0.35248147372740     -0.04654034145115
  C   -3.04471358172662      0.97794968713043      0.09478859953122
  N   -1.78222368702416      1.36350468035246      0.05259475371549
  C   -0.62287287481133      0.73316245957118     -0.00742065482729
  C   0.48829734607319      1.61050752350702     -0.08425700956203
  C   0.26146714805652      3.00547124080812     -0.13387857296650
  N   0.16488335603054      4.16158214225657     -0.17907208836944
  C   1.80124126170423      1.13605678093907     -0.06749803000503
  C   2.02343108985268     -0.31764430774989      0.03485616343800
  C   3.40060678849525     -0.52729252919117      0.05655604847478
  C   4.11723347574791     -1.71808685788974      0.14200177302266
  N   4.78150033205068     -2.67302421834752      0.21148872035292
  C   4.02097345306873      0.77960489609610     -0.03291424922517
  N   5.33865759441925      0.95751383042282     -0.03956619839338
  H   5.96330772176137      0.17074256611672      0.01756807249616
  H   5.74353351087324      1.87374292037653     -0.10219761617578
  C   3.02561109772087      1.77890463618185     -0.10739648580775
  H   3.19336487831595      2.84042739042822     -0.17838367154158
  C   0.95188301446426     -1.18993965185651      0.07495667917383
  C   -0.36282812722402     -0.73614015427860      0.02907074696448
  C   -1.41049119780421     -1.69053888816509     -0.03728059323914
  C   -1.03514515902997     -3.06300296104147     -0.07101445446170
  N   -0.75990559232023     -4.19032001184671     -0.09832426124262
  C   -2.79324224523276     -1.50689371713337     -0.09575880043252
  H   -3.36462418255223     -2.41997746033148     -0.18433901816641
  H   1.14457997331717     -2.25223669116810      0.12164427484165
  N   -3.92080920507585      1.98905640123236      0.26558762288251
  H   -4.91478074237863      1.84886079637243      0.25627772057657
  H   -3.55410693645055      2.92414448550329      0.27546116372770
