26
Coordinates from ORCA-job ./opt_b97-3c_parallel
  N   -3.11295401525350     -3.89255728916329      0.00158207483026
  C   -2.79353146351901     -2.77473701417866      0.00128843307770
  C   -2.35511550968141     -1.44417203648685      0.00069683716399
  C   -3.13788744370425     -0.28727291300631     -0.00006017071782
  C   -2.31154960614415      0.86431655680416     -0.00041642659882
  C   -2.80652161590918      2.17762263641520     -0.00130818357169
  N   -3.27308260951456      3.24132478704522     -0.00205138122791
  C   -0.97291823489202      0.42885696589774      0.00018453487021
  C   -0.99485074102995     -1.03446283711356      0.00081340603688
  C   0.16446540374428     -1.75875484556885      0.00130599991232
  C   1.42061660254110     -1.12320347953304      0.00124822179276
  C   2.53293493950313     -1.95316227398629      0.00141140248210
  C   3.89721529042995     -1.65848893478319      0.00137614255314
  C   4.47914818229437     -0.41348387503393      0.00136932386106
  C   3.83586843523959      0.83438882964952      0.00133543709042
  N   2.55970874306554      1.13968883308741      0.00104292847255
  C   1.47479669573186      0.36401170987851      0.00087987776226
  C   0.25563331474336      1.08892115445842      0.00034669505198
  C   0.31897235891527      2.50572025895353      0.00015896355224
  N   0.33027297050982      3.66488018648773      0.00028562265520
  H   4.48929360134987      1.70118870176952      0.00146663642657
  H   5.56213661447960     -0.37575002626099      0.00142549474353
  H   4.56328235820277     -2.51114441624627      0.00141953897381
  H   2.29898427616307     -3.01153099474988      0.00155873082094
  H   0.12185584638693     -2.84020498473858      0.00166636820255
  H   -4.21529539515262     -0.26331608249731     -0.00034889181620
