28
Coordinates from ORCA-job ./opt_b97-3c_parallel
  N   -5.50184567103113     -0.28561956780664     -0.00056659653047
  C   -4.34805394226096     -0.14487660091352     -0.00035841510019
  C   -2.93592241150087     -0.06260448047942     -0.00008855548034
  C   -2.38161311803704      1.22774122376242     -0.00009150567607
  C   -1.07421398127744      1.65925134871133      0.00011027871767
  C   -0.97126001197724      3.08056132438238     -0.00004157850120
  N   -0.91654764999265      4.23993830979169     -0.00020781325014
  C   0.16769529168599      0.92876450693303      0.00040207194139
  C   1.34376331616413      1.65690288936877      0.00043413503411
  C   2.59185670086985      1.03991167942409      0.00074907275663
  C   2.67708681199427     -0.42399302096192      0.00109849919618
  N   3.97278340901200     -0.85415109520140      0.00139362442209
  C   4.68538791861330      0.27341533506002      0.00123900930106
  C   3.90164148418359      1.46899069462261      0.00084433739195
  H   4.26894518410837      2.48177021198545      0.00066235771409
  H   5.76614755003837      0.22909129295445      0.00140157227877
  C   1.53519993021379     -1.18158859404794      0.00109092377768
  C   1.64487225370141     -2.59323357656817      0.00142648419722
  N   1.68545870300774     -3.75319746413013      0.00166681398994
  C   0.22496834811144     -0.54609837892391      0.00069028578293
  C   -0.83139727559589     -1.42114144710884      0.00058576982829
  C   -2.24376513707729     -1.28267638462986      0.00020737968918
  N   -2.93854732091052     -2.44123972341519      0.00012398945729
  H   -3.94339986468373     -2.44932259500477     -0.00003712421142
  H   -2.46729853051180     -3.32609141818835      0.00046626713356
  H   -0.53048182781804     -2.46092886569682      0.00081951470395
  H   1.29386459841990      2.73587917379874      0.00021295229429
  H   -3.11844092844956      2.01807146958186     -0.00031046275842
