29
Coordinates from ORCA-job ./opt_b97-3c_parallel
  N   -2.42563016065598     -4.38345101925128      0.02189116984529
  C   -2.38724003526651     -3.22082248024173      0.01529052031088
  C   -2.27613481497912     -1.82554393627525      0.00685285993176
  C   -3.29713651582699     -0.88290617584098     -0.01016818852671
  C   -2.75453672665251      0.43268272019569     -0.01614865416138
  C   -3.53515133316884      1.59734247674895     -0.03298622527598
  N   -4.22564854715832      2.53224267609050     -0.04760235067055
  C   -1.35330256489986      0.31728862893998     -0.00266284834899
  C   -1.03919272131015     -1.10720750045254      0.01217179380273
  C   0.24952035693878     -1.53994182521592      0.02605985145370
  C   1.33925567205475     -0.62863545193490      0.02642984361590
  C   2.58934015294185     -1.22676998414329      0.03760342406041
  C   3.90643824293145     -0.73359195680898      0.03141673810598
  N   4.91428058141866     -1.66810826084568      0.08681351325132
  H   5.84056431801387     -1.37278152385546     -0.16517632521957
  H   4.70158850175493     -2.60947373335857     -0.19146848399579
  C   4.25665131146086      0.61491476033502      0.03034971605782
  C   3.42279537906315      1.71822365839879      0.02811263028361
  C   2.04365565858715      1.80227590662447      0.01959834945143
  C   1.05202539712354      0.81421957023314      0.01363408136138
  C   -0.30431132693059      1.23976979119174     -0.00036918877083
  C   -0.59158109786691      2.62657444870278     -0.01476642212884
  N   -0.78820348018559      3.77043376950514     -0.02607367940960
  H   1.66708170645605      2.81620815189438      0.01461222508959
  H   3.93244018047765      2.67300928723063      0.02777140753028
  H   5.31965982749312      0.82922529875298      0.03590152591206
  H   2.53857507154604     -2.31038552555085      0.05536703082151
  H   0.45631911277118     -2.60195028015186      0.03671023635397
  H   -4.35197584513168     -1.10366923891689     -0.01799268883136
