38
Coordinates from ORCA-job ./opt_b97-3c_parallel
  N   -5.32796442767779     -2.30218562672413     -0.63970317457407
  C   -4.44627291843395     -1.57474532783478     -0.39964577658501
  C   -3.38852336894147     -0.70408602291069     -0.09737835435183
  C   -3.75316064211943      0.55844931826721      0.47314749485546
  C   -2.98782549314971      1.69882140603445      0.43699609869412
  C   -1.68987482833877      1.92441150662636     -0.06900483081066
  N   -1.48497339734547      3.25761483007878     -0.39122476602067
  H   -2.33021781870587      3.76342529994157     -0.59142881005427
  H   -0.75188699768984      3.44788676684220     -1.05572662694513
  C   -0.62096583146581      0.99931721590523     -0.14830008968778
  C   -0.83630689650754     -0.46594821634838     -0.11965697546140
  C   0.26226447298491     -1.31368347739373      0.02758885703436
  C   1.55712418987381     -0.84574740210350      0.02875938928028
  C   1.80123676856438      0.56774635244586     -0.18105840758654
  C   3.18776252869872      0.76959907139554     -0.16011718925189
  N   3.85836230153848      1.99696535209242     -0.29178571861309
  H   4.84629835253271      1.90566412967159     -0.09870077355085
  H   3.75341385454102      2.40053089770097     -1.21394259787493
  C   3.80157180307926     -0.49038119884088      0.08259731307764
  C   5.17755231651785     -0.70656933328646      0.17428823630701
  N   6.32792266406865     -0.87743527592699      0.25534581037470
  C   2.79487807767711     -1.48295464444500      0.22504037612114
  N   3.02159650570392     -2.83293633104598      0.40511269874338
  H   2.32788256548225     -3.30595959211426      0.96091525875992
  H   3.95176682882317     -3.05711782561547      0.72198200069882
  C   0.73490705141975      1.47093072779591     -0.16186833197634
  N   1.07240276394830      2.81684516916094     -0.09589013845706
  H   0.45514259995041      3.38591232202322      0.46248996499926
  H   2.04354796490848      2.94977381892251      0.16286126845103
  H   0.08325003731715     -2.36999999614935      0.17001165043487
  C   -2.08084223960614     -1.14048375745560     -0.37770318377169
  N   -1.97711598947273     -2.40633815383082     -0.87776643216829
  H   -1.18676910943211     -2.62110337416287     -1.45577863559721
  H   -2.81925932607104     -2.91497130655597     -1.08704265533403
  H   -3.49034133318627      2.59979711556876      0.77190406284923
  N   -5.00356751170713      0.63967465456828      1.01455957989971
  H   -5.41050168865854      1.54784631679150      1.14406655617488
  H   -5.65977590882077     -0.10061351188860      0.83441491251677
