31
Coordinates from ORCA-job ./opt_b97-3c_parallel
  N   6.36709858571471      0.67937389323615     -0.39943326931570
  C   5.21887475941270      0.51995825106679     -0.31855685828679
  C   3.81943335819391      0.39131141810516     -0.16544504920024
  C   3.12128349290608      1.49639011443904      0.42875280906680
  N   1.83910866799663      1.75276262078688      0.27330671009627
  C   0.79453954800767      1.00834656774230     -0.02007119572110
  N   -0.32234002738639      1.71509662765998     -0.27793185008159
  C   -1.47644660146298      1.08937724151100     -0.22867267023882
  C   -2.76022593448446      1.62791869575551     -0.42456764517104
  C   -3.12803527888638      2.92048745966643     -0.80183944023352
  N   -3.52127842309763      3.97102637201125     -1.10997763524238
  C   -3.68962537434753      0.60931355992672     -0.08648653260049
  N   -5.00543589017493      0.71508841674726     -0.12245592565203
  H   -5.44638709871406      1.57160742064490     -0.41469839247361
  H   -5.59251202914848     -0.05930189240213      0.14202479260109
  C   -2.98408903712227     -0.59180462286270      0.31786532129520
  C   -3.66955239287945     -1.75035332941612      0.68749400920658
  N   -4.35804520531595     -2.64302849156931      0.97684950878459
  C   -1.62894598993791     -0.32282348871456      0.19720855865326
  C   -0.46935900588021     -1.09283642736540      0.30753438794393
  C   -0.56495915811239     -2.44098725244262      0.72293809041354
  N   -0.68221382763511     -3.51186935185585      1.15426459871071
  C   0.76915009427569     -0.47768163086115      0.01810472200813
  C   1.89397340806090     -1.22075741063019     -0.40261959997864
  C   1.70134557316418     -2.55288896648788     -0.86406494885738
  N   1.61999336655763     -3.61283402919004     -1.32966653861556
  C   3.22172719140518     -0.79089321251382     -0.54845930755822
  H   3.88755785759271     -1.52302964251646     -0.98246711154138
  N   3.82038743904345      2.41190579656637      1.11778614590734
  H   3.35618081518785      3.26251966321633      1.38345736821652
  H   4.81882372796709      2.35470455364757      1.21208708696567
