28
Coordinates from ORCA-job ./opt_b97-3c_parallel
  N   -5.76953034166599     -0.54247258592482     -0.05274641108191
  C   -4.61235316882138     -0.42394160613218     -0.05749458253657
  C   -3.21911224682912     -0.19668020415294     -0.04483921871322
  C   -2.80307506547862      1.14179913768059      0.10547685219598
  N   -1.56081102875902      1.64138091651026     -0.04625186992148
  C   -0.38531835721741      1.06479235171365     -0.10263882877903
  C   0.67637215569375      2.03224204445932     -0.24310330915050
  C   1.97556435718397      1.66816539693713     -0.15143066368115
  C   2.31684537125089      0.26484164320273      0.05420428091786
  C   3.69968531411739      0.19394058409107      0.13479316125935
  C   4.47026015137971     -0.95392785621313      0.33438804821518
  N   5.11729755852920     -1.90696096156339      0.50215914353582
  C   4.22955057459280      1.54911344994598     -0.02301852270161
  C   3.20715369341406      2.42480072797459     -0.19214123108005
  H   3.28302975774918      3.49024486242340     -0.33183712220465
  H   5.28227483417022      1.78126588714063     -0.00252954680029
  C   1.31039915292993     -0.70169195662737      0.10424342957639
  C   -0.02319358131201     -0.36522560410852      0.00524479821932
  C   -1.01094173277572     -1.41176100924722     -0.10316088627768
  C   -0.52029668193349     -2.74217177526604     -0.19751994814452
  N   -0.13166451220183     -3.83377790743246     -0.27165222460568
  C   -2.38144003122647     -1.32084155772338     -0.15077986478257
  H   -2.90521062895023     -2.25906775071855     -0.26365611938218
  H   1.59200960864129     -1.74143742413843      0.19661303791235
  H   0.36814441134179      3.06128907316644     -0.35633457753072
  N   -3.71302047439847      2.09883608705526      0.37513325417954
  H   -4.69316934937783      1.89460705095704      0.45594671082632
  H   -3.41169535304680      3.05526239499019      0.34050360003556
