31
Coordinates from ORCA-job ./opt_b97-3c_parallel
  N   -3.36885505428193     -3.95915763978932      1.22521539282189
  C   -3.15796500665819     -2.87350444296400      0.87030478964151
  C   -2.89743236913662     -1.56494456191445      0.44455164695396
  C   -3.80171769876861     -0.60618687083178      0.07019861713112
  C   -3.12191526143716      0.61325205842926     -0.33083123762889
  C   -3.79911910750998      1.76165663791927     -0.75588100999901
  N   -4.41284206127021      2.68585692325597     -1.10401972377493
  C   -1.75871955574473      0.41002073296882     -0.18249551233473
  C   -1.57736698928920     -0.97406454317593      0.28002416680242
  N   -0.43222291257718     -1.55401154427130      0.42247918411051
  C   0.69841998507693     -0.81632339099451      0.14399822043290
  C   1.80880084740975     -1.61178987955835     -0.06225711664107
  C   1.67123317524027     -3.01364788776482      0.07505572143566
  N   1.72299878972160     -4.17340884535861      0.12104347390555
  C   3.09799910610626     -1.15091265702405     -0.56814162763128
  N   3.66103111191429     -0.00237422936273     -0.31416909348571
  C   3.13746384130704      1.06806262751809      0.29256911006696
  N   4.05355779222444      1.87554090403494      0.85402822133181
  H   5.02311913299688      1.67032047888186      0.69602420612334
  H   3.80356564843823      2.77345856730256      1.23031156917050
  C   1.76900638940684      1.45978485235111      0.30151336582679
  C   1.54581423184954      2.76217725938616      0.79179817554080
  N   1.49507115502725      3.81362715397521      1.28811602112939
  C   0.64965179321929      0.63733215904944     -0.01100570268460
  C   -0.60866821569789      1.20287647111476     -0.30340093524017
  C   -0.72102881187524      2.54056999567711     -0.74595725694773
  N   -0.82748925131386      3.60600675143627     -1.19345849531096
  N   3.79818218719487     -2.01798180141235     -1.31484844456608
  H   4.73618576605931     -1.77291488730632     -1.57794583727302
  H   3.48821620452229     -2.96245106534639     -1.45858747982383
  H   -4.87309360485618     -0.72141342352862      0.06396861011641
