30
Coordinates from ORCA-job ./opt_b97-3c_parallel
  N   -3.37010991554699     -4.00420592292509      0.47050858259238
  C   -3.09756257018672     -2.88079268268912      0.33926792580333
  C   -2.73480714986104     -1.53856415872685      0.18102744381638
  C   -3.60490256554608     -0.43256485933884      0.06232929740995
  C   -2.87679656629360      0.75462227495208     -0.09038588625029
  C   -3.44275073101883      2.02896225103981     -0.23297761906126
  N   -3.94455627657130      3.07111367676020     -0.34937682032730
  C   -1.49605090312777      0.40807838812660     -0.06889238282852
  C   -1.41499622204039     -1.04883900653067      0.10277835655348
  C   -0.20101397246901     -1.69018136943801      0.12208611652329
  C   1.00446381619529     -0.98769684097512      0.00152427453871
  N   2.08884224035901     -1.75779961346002     -0.09004601112333
  C   3.37398965105807     -1.46043520997730     -0.12773385084856
  N   4.18828159626802     -2.54884222483362     -0.30295341219050
  H   5.10522123673807     -2.41880163912502     -0.69004539920558
  H   3.71623600836384     -3.39672731495645     -0.56588684130335
  C   4.01818591247005     -0.22539572456624      0.09734417973052
  C   3.44074224194204      1.02346537279538      0.14886486357589
  N   4.24091946225020      2.12284548852005      0.29650559923800
  H   5.19180882246062      1.99733235716841      0.59211867229013
  H   3.82420095520132      2.99319498966744      0.57297645015252
  C   2.05483517935770      1.30862605054809     -0.00166870819326
  C   0.95774756756874      0.49590267388157     -0.07954164771090
  C   -0.33500389080052      1.14494422163586     -0.16720519716062
  C   -0.37507624534955      2.55164152909913     -0.30485359522358
  N   -0.32609948151106      3.70709991077323     -0.41239794058999
  H   1.83752566249794      2.36925060776304     -0.03540589951487
  H   5.09490863507001     -0.26869462888079      0.21974669051138
  H   -0.14367977524062     -2.76662500582198      0.19228627635998
  H   -4.68115989583750     -0.49033261278575      0.08507287263597
