25
Coordinates from ORCA-job ./opt_b97-3c_parallel
  N   -1.09668958906012     -3.58329604226244     -0.53355257353985
  C   -0.86587009838273     -2.46162667144828     -0.35015179772234
  C   -0.63004945539733     -1.08211451874038     -0.14563072425090
  C   -1.68366813892216     -0.17032741539421     -0.10651768248694
  N   -2.98346817447777     -0.37471293453686     -0.25434574732351
  C   -3.54649789750565      0.85822104220399     -0.00122681109535
  N   -4.87165794449881      0.96692284072026     -0.07276495210892
  H   -5.34648182098769      1.82709092379437      0.12537744779795
  H   -5.41168211170511      0.14777822971120     -0.29072844314812
  C   -2.61201797895596      1.87619612623625      0.30946455288330
  C   -1.38032552233157      1.25064172510659      0.24379458441910
  N   -0.15210282123745      1.72939564225302      0.39821249057033
  C   0.86898629079931      0.86398508151766      0.26475144094182
  C   2.11799797608460      1.44616213405470      0.11983340496321
  C   3.37787955568605      0.84889657370482     -0.09121176750809
  N   3.75309780778812     -0.40786942949631      0.16621263152616
  C   2.91678943592534     -1.39109734688318      0.44619213793701
  N   1.61201328261195     -1.53534676147191      0.30204500314274
  C   0.67508092675278     -0.61238477606248      0.12516267339935
  H   3.41250748604366     -2.29467148476699      0.78784096763460
  N   4.37765421394682      1.64379646230724     -0.54249124879779
  H   5.31138555749822      1.27533955942833     -0.52806575277032
  H   4.25385339609545      2.63214232644229     -0.65176278083097
  H   2.08373875628065      2.52908439508688      0.10291459064512
  H   -2.81355559675058      2.90964759939543      0.53260325092237
