28
Coordinates from ORCA-job ./opt_b97-3c_parallel
  N   -2.48762861013295     -4.36118700788013     -0.02436008960031
  C   -2.43560105886462     -3.19930736866609     -0.01652165657467
  C   -2.30279909931657     -1.80586121366328     -0.00709237033470
  C   -3.29878264599892     -0.84820471591605      0.01074267493305
  C   -2.72348030569371      0.46446053281719      0.01733991528007
  C   -3.49225234576370      1.63703500757673      0.03554177850712
  N   -4.18748326990300      2.56814762448975      0.05125597711530
  C   -1.33178097474479      0.32416024524168      0.00346641308221
  C   -1.04515017924250     -1.10706043877445     -0.01221903785532
  C   0.22818064600384     -1.57127938230411     -0.02683018105906
  C   1.33832193265050     -0.67547922967734     -0.02463518766466
  C   2.57361239359585     -1.27485899425589     -0.02785282697301
  C   3.88981341450484     -0.74058293242304     -0.01673305671315
  N   4.90520697109205     -1.65069904676147     -0.04770822697354
  H   5.84494104889822     -1.34426718774104      0.12609737853497
  H   4.72014408102374     -2.61178554776012      0.17322375268461
  C   4.18558909634914      0.61188615267878     -0.02003791721285
  C   3.29592007794182      1.69224437816747     -0.03130106521746
  N   1.99040970301684      1.76670587269010     -0.02531215510535
  C   1.07589370291619      0.78347832141383     -0.01564957649643
  C   -0.26056491243117      1.23022298671988     -0.00077270220794
  C   -0.50003135547769      2.62717154764361      0.00857069651323
  N   -0.73796224914869      3.76199836100219      0.01710703716854
  H   3.77869888625641      2.66590783453244     -0.03910765454605
  H   5.23537550809106      0.88325477290332     -0.01784509477355
  H   2.53908330764630     -2.35912023797834     -0.04263592207147
  H   0.41532096667936     -2.63727619940580     -0.03729376095228
  H   -4.35859499104790     -1.04335560516967      0.01888009891263
