29
Coordinates from ORCA-job ./opt_b97-3c_parallel
  N   5.74602504934058      0.13290512841590      0.21133024576367
  C   4.59097509955560      0.01698167043976      0.14764483188463
  C   3.18104924066193     -0.04018316220660      0.05626274765162
  C   2.49435118604831      1.20637519940300     -0.10804858583619
  N   1.19177481329843      1.42090920045092     -0.06067725393712
  C   0.13530943466486      0.63022778964424     -0.00064148353470
  C   0.08552900667874     -0.86417743927619     -0.06541627542072
  N   -1.05208107117532     -1.54229941545189     -0.13136320131867
  C   -2.21002766095156     -0.88115200139041     -0.08366548322005
  C   -2.29972730186037      0.60378763889728      0.07266833119252
  C   -3.62879355982036      0.95628125499810      0.11256752014157
  C   -4.36865835939332     -0.25326651226313     -0.01965090513148
  N   -5.69946130358077     -0.33787112270502     -0.03160447435414
  H   -6.16504449069399     -1.22158514314047     -0.12898305931130
  H   -6.27406955354253      0.48021411015452      0.05993015074363
  C   -3.48765635587076     -1.37891280826637     -0.14145490132554
  H   -3.77574375468319     -2.41103848283947     -0.24806624445951
  H   -4.04066033466034      1.94698076328118      0.21096737731959
  C   -1.10159560984996      1.31338544208841      0.10431830302765
  C   -1.11585493186939      2.72520734447109      0.18557422406903
  N   -1.21019972524249      3.88006514784500      0.25698637963356
  C   1.25143995900019     -1.66715345357324      0.01705041883463
  C   1.03571671355970     -3.07491299241049      0.04229734260146
  N   0.96674670943070     -4.23288128870450      0.06964089509974
  C   2.59140913376667     -1.29126994097388      0.10211096727046
  H   3.28307461774310     -2.11487809799136      0.20862588175654
  N   3.22728396192763      2.32309382188343     -0.30492125062054
  H   2.74063724711592      3.20164000850028     -0.29994825248492
  H   4.23065113770201      2.31746709871989     -0.27423226393543
