27
Coordinates from ORCA-job ./opt_b97-3c_parallel
  N   5.78753630507576      0.03141237597750      0.00500465039049
  C   4.62735184642141      0.01880270734504      0.00356573640867
  C   3.20476992761758      0.00542767847111      0.00198513771882
  C   2.57475665737344      1.25282377038234      0.00132508555659
  C   1.22375631055046      1.54815427989464     -0.00009745760943
  C   0.94522262409517      2.94937903052754     -0.00039414334825
  N   0.85549061658714      4.10590782881717     -0.00056488939841
  C   0.06340482341838      0.70857116711869     -0.00128063096510
  N   -1.06088085188054      1.41018434810955     -0.00235830074540
  C   -2.23041287024123      0.76263744175309     -0.00353954944579
  C   -2.32717327456942     -0.71006015204362     -0.00373102245321
  N   -3.59915709878165     -1.12313437491706     -0.00498994421737
  C   -4.32133170886275      0.03478766930030     -0.00560577489370
  N   -5.65049176467589     -0.02375674490913     -0.00685861489802
  H   -6.09859115116704     -0.92376706163415     -0.00744296597035
  H   -6.21879938108266      0.80232571429884     -0.00747909944215
  C   -3.52239190528924      1.22628075999386     -0.00475531588982
  H   -3.86346713205173      2.24737428054719     -0.00500588047535
  C   -1.15902290292971     -1.43936850906143     -0.00263384145074
  C   0.07537525505501     -0.77817258906509     -0.00134867651268
  C   1.24841156090165     -1.58249246885088     -0.00018772934789
  C   1.05143438966409     -2.99631241059970     -0.00050734443348
  N   0.93297773995824     -4.15039098424173     -0.00079779127112
  C   2.60094875005610     -1.24615905511039      0.00127710666816
  H   3.27955248393408     -2.08698549944333      0.00196341702226
  H   -1.20386717472750     -2.51807910854007     -0.00274085740018
  H   3.23395746495084      2.10864750657971      0.00203484470347
