26
Coordinates from ORCA-job ./opt_b97-3c_parallel
  N   5.64974160307108      0.10741629687013      0.00195911543016
  C   4.48822414027670      0.07773253389144      0.00148187631606
  C   3.07256196037729      0.13180612394247      0.00084597711034
  C   2.40746548936594     -1.08569990604321      0.00052494698939
  C   1.05370116598351     -1.40059949698964     -0.00014965614186
  C   0.79003458317119     -2.80268886060811      0.00001032443492
  N   0.69677104732602     -3.95881530793045     -0.00006468138546
  C   -0.09035464717031     -0.55797780030407     -0.00086433136677
  N   -1.25197270574905     -1.21857386607002     -0.00109508289098
  C   -2.34760198323343     -0.47115453491021     -0.00248994858380
  N   -3.61011250916542     -0.86272361937271     -0.00305139762056
  C   -4.27084752355228      0.34852505428528     -0.00472926751405
  N   -5.59587535969221      0.37591486432458     -0.00590411772279
  H   -6.11112492968728     -0.48555481617922     -0.00485437593472
  H   -6.07862230743550      1.25596113752269     -0.00655245255511
  N   -3.53817467251025      1.49392306140215     -0.00526694960105
  C   -2.29237948514809      1.01392437569536     -0.00383124877936
  N   -1.15836375184488      1.67709766977225     -0.00343984132556
  C   -0.02657157003111      0.92250287375823     -0.00187504307804
  C   1.12328776791363      1.70270192049578     -0.00082215310078
  C   2.49538652205235      1.43092585948374      0.00053882297631
  N   3.32660126578951      2.49775249264131      0.00207393195767
  H   2.96109907894609      3.43066218100863     -0.00130353290601
  H   4.32481944086314      2.38771257583703      0.00026907354704
  H   0.87019466745048      2.75644076974475     -0.00127809138112
  H   3.06072889293269     -1.94682260606705      0.00084765082498
