25
Coordinates from ORCA-job ./opt_b97-3c_parallel
  N   -5.44521448224424     -0.16225884434078      0.00044515906962
  C   -4.28617935393865     -0.12351435220995      0.00004389037961
  C   -2.86290606602859     -0.06648377576915     -0.00001122924861
  C   -2.20244487985420     -1.28174969545724     -0.00018137083058
  C   -0.82404253449812     -1.53132079639130     -0.00008763487149
  C   -0.50875325794486     -2.92420913941618     -0.00041995175920
  N   -0.41868437487127     -4.08066691580715     -0.00099425795550
  C   0.28358907479566     -0.65719968501233      0.00036845551665
  N   1.44576394582065     -1.33123607220000      0.00066100945726
  C   2.57353710254015     -0.65491124005177      0.00099323898863
  C   2.63222193724450      0.82942496763040      0.00092581390222
  C   3.98062891181343      1.13163835612858      0.00129955149463
  C   4.63178361590023     -0.12732741185834      0.00157627267937
  N   3.80689127354035     -1.19486906528374      0.00140080639063
  H   5.70196692302956     -0.28176896272149      0.00190622344154
  H   4.44966254680697      2.10144826260323      0.00138360970392
  C   1.43807949868642      1.52157435668798      0.00062277084048
  C   0.22741868756744      0.82865187795949      0.00038472971247
  C   -0.97397210739185      1.59649083214052      0.00019712953032
  C   -0.81942007876793      3.01766721748981      0.00022011751119
  N   -0.73496391605984      4.17418065905844      0.00041358922359
  C   -2.30687411652591      1.22111949671030      0.00008082929631
  H   -3.01934483544369      2.03259117471079      0.00005876853729
  H   1.43521636626577      2.60208917604828      0.00060818273058
  H   -2.82793811694202     -2.16196902674835     -0.00037687574092
