24
Coordinates from ORCA-job ./opt_b97-3c_parallel
  N   -3.00439162174484     -3.92698091672786      0.43869728701447
  C   -2.67303605951183     -2.82141944662169      0.31082209968784
  C   -2.26855414586303     -1.48803285877265      0.15637434524950
  C   -3.08398132305282     -0.37796908738388     -0.02842184363682
  C   -2.30362870868465      0.81242797635469     -0.16650575778445
  C   -2.84905448242014      2.08997836887672     -0.35908847240431
  N   -3.34231275556587      3.12866974211554     -0.52435044808435
  C   -0.96170257397458      0.44962663959452     -0.06728333765166
  C   -0.91976752891694     -1.02236794760707      0.12939749009783
  N   0.17120367712314     -1.73506340879293      0.22280795456640
  C   1.35241486863403     -1.07446797958306      0.13896520442951
  C   2.44755328548820     -1.86528651564309     -0.13962254723160
  C   3.76212919427269     -1.45263257194304     -0.45566269262998
  N   4.37753239301731     -0.33963516235719     -0.15852846805999
  C   3.79184802730398      0.71283585042572      0.44354726522043
  N   2.54395064102187      1.10178808265619      0.42696284833678
  C   1.43801370505102      0.40999277453839      0.15457612968011
  C   0.24385469626113      1.14446588673392     -0.00819363014158
  C   0.30225054458126      2.55856553983948     -0.03922889150746
  N   0.33821153830430      3.71665491539555     -0.07296039244692
  H   4.48558909435558      1.40962835408499      0.89897893159536
  H   4.36805262979293     -2.18102552422846     -0.98621420940302
  H   2.22723759216226     -2.91975715137242     -0.25011754233027
  H   -4.16106098623490     -0.39918563438260     -0.06548346666668
