28
Coordinates from ORCA-job ./opt_b97-3c_parallel
  N   -5.63477780399490      0.10575244816690     -0.70163910257012
  C   -4.49685019939565      0.05768343157761     -0.48321954049922
  C   -3.10026884929130      0.01711729704296     -0.21449018347794
  C   -2.45005552108287     -1.16498289217192     -0.46935722782002
  C   -1.11151695779757     -1.52837013703206     -0.17290828442064
  C   -0.91373658540583     -2.92193804467859     -0.40680154154740
  N   -0.88710647726588     -4.03984512164643     -0.71527131538220
  C   -0.01767505983054     -0.71863480255436      0.14914549130855
  C   1.25902381562081     -1.34114597381704      0.43066623107895
  C   1.36483163588048     -2.62820830783818      1.00973518488635
  N   1.49371929859313     -3.62596812570951      1.58674375216080
  C   2.40739264799336     -0.64385876351567      0.15152339710004
  C   2.34868449250050      0.73077293465795     -0.35020748662940
  C   3.64731354731232      1.08058185779947     -0.60221359064293
  C   4.42140195729215     -0.07863314602251     -0.23346395651564
  N   3.69759268720261     -1.09301506233036      0.22245631717941
  H   5.49722721124924     -0.16244896173731     -0.29868594438679
  H   4.02233731930915      2.02329531873062     -0.96399639600924
  C   1.11499901498153      1.42030963773265     -0.31917391250893
  C   1.12397817597274      2.79268323038970     -0.66771365085275
  N   1.20567507612856      3.88816927739678     -1.04093359468511
  C   -0.04989793329063      0.74715622809367      0.02443222579539
  C   -1.21280530832694      1.50088142940507      0.45432303266104
  C   -0.96086477436862      2.72538341700742      1.13716747890517
  N   -0.80568946038979      3.68567116644583      1.76969732437567
  C   -2.54040749643740      1.18416378854407      0.35369123128264
  H   -3.24107436060398      1.92409709011165      0.71218342410049
  H   -3.05621007675529     -1.96310914074858     -0.87171800718585
