31
Coordinates from ORCA-job ./opt_b97-3c_parallel
  N   3.94811593766531      3.19150755721347     -1.31466253900221
  C   3.29104601933065      2.31443949035282     -0.92857221279407
  C   2.46583741236268      1.26345253800510     -0.45089282503172
  C   3.05518775590338      0.03427543969654     -0.26655593023493
  C   2.49372303016197     -1.16059602870675      0.21062646275829
  C   3.40774143284689     -2.19036544030284      0.52558791893905
  N   4.11216801200323     -3.07651383058572      0.79846769785080
  C   1.11452062833526     -1.48662291220714      0.32956923705687
  N   0.83386671784733     -2.75054645551162      0.70024405346183
  H   1.57725934421809     -3.39801346675116      0.90413663989340
  H   -0.08279340470841     -2.98403987462354      1.03122349844970
  C   -0.00774044136673     -0.63394132551665      0.04877639014695
  C   -1.23039506562593     -1.22129414051971     -0.24042708381123
  C   -2.39782636983386     -0.47271456198519     -0.25462617209549
  C   -2.38835121270372      0.89507880660941      0.22179288831841
  C   -3.75218284844203      1.26929122088556      0.29546924880317
  N   -4.55274712371715      0.28205146201828     -0.11117757459850
  C   -3.75271353129987     -0.77624355936690     -0.44937111009076
  N   -4.32186365070912     -1.96005322451149     -0.83616538346349
  H   -3.80275803370566     -2.51063719865928     -1.49847610749012
  H   -5.29688096265130     -1.87453411787229     -1.07382969279688
  H   -4.17419497776800      2.21689216414630      0.59823885227582
  C   -1.19515468163309      1.53550956730109      0.48223719529588
  N   -1.14891792114651      2.83048879275921      0.89798587231602
  H   -2.01877276077633      3.27445649694163      1.12995321009172
  H   -0.37069699102300      3.12599484331601      1.45937845872931
  C   0.05484143032341      0.83549468150459      0.18518275108525
  C   1.13406895730064      1.62386264240680     -0.10160506396849
  H   0.95398768681886      2.68922638996240     -0.13225462452445
  H   -1.27883059998720     -2.27948786875425     -0.46271790348161
  H   4.11800576177970     -0.01282493124554     -0.46424683158751
