30
Coordinates from ORCA-job ./opt_b97-3c_parallel
  N   -6.08642483212301     -1.14432063765932      0.41173511288178
  C   -4.95363685649721     -0.93249801853200      0.27972868333378
  C   -3.56453949850712     -0.66738843883007      0.12404703874908
  C   -2.70852305702882     -1.75530563183160      0.22834435273656
  C   -1.32607925352377     -1.79357948895328      0.06131744802542
  C   -0.78604085545260     -3.11426281966112      0.09028317276914
  N   -0.48136338253797     -4.23275093987231      0.12905794498306
  C   -0.37080531004866     -0.75029863046332     -0.06553005335359
  N   0.87900045358648     -1.22094943285076     -0.17719409846239
  C   1.89340605456670     -0.38403458682116     -0.09785397223399
  C   1.72715840524079      1.05668418321115      0.18397423913448
  C   2.96598173891285      1.62957923571318      0.32675579917319
  C   3.92775751625327      0.59818772226761      0.10375242800550
  N   5.24626945457090      0.73904865467599      0.13021254112369
  H   5.67624831086416      1.62474917336818      0.32731264684817
  H   5.84972389405160     -0.04893650521288     -0.04024356492901
  C   3.26308226768219     -0.64959022956011     -0.15932465041849
  C   3.93990990709643     -1.84737070691678     -0.38902336848086
  N   4.59956534675809     -2.78807917776785     -0.57272677356710
  H   3.18593941738482      2.66189496186882      0.54343198139070
  C   0.41798550559608      1.55974819174312      0.21700317458200
  C   0.28790263414090      2.92892327232651      0.55286949865978
  N   0.32587520508997      4.02936405160821      0.91985600050823
  C   -0.66877963657165      0.69363602967825     -0.00329766878571
  C   -1.96357989053725      1.23543603336167     -0.27567005607808
  C   -2.03636443291447      2.57298428651088     -0.76533669995216
  N   -2.18531454634481      3.60972163567776     -1.26494075205405
  C   -3.21810499187276      0.65004102420999     -0.18941017871493
  H   -4.04754799730949      1.31353413615057     -0.38709551460055
  H   -3.17689966682634     -2.71080119674041      0.41395206652648
