29
Coordinates from ORCA-job ./opt_b97-3c_parallel
  N   -5.81783009079836      0.00047505554908     -0.00447705966587
  C   -4.65733299673084      0.00038267085926     -0.00342469116453
  C   -3.23465179245274      0.00027048028672     -0.00193611418829
  C   -2.61950833595545     -1.24890833139485     -0.00139751329610
  C   -1.26291121624227     -1.56291982341534     -0.00002338969987
  C   -1.05499856937975     -2.97599936595796      0.00010288013025
  N   -0.93639143199119     -4.13039419724303      0.00017657482038
  C   -0.09565309544054     -0.74793539173159      0.00117076077612
  C   1.12893478791958     -1.40938574987921      0.00207581273349
  C   2.34228935440377     -0.73892473402080      0.00334747132376
  C   2.34240505668917      0.73858637152195      0.00384531865076
  C   3.65478503657219      1.16817731487182      0.00514716498915
  C   4.47137530426091     -0.00033598577997      0.00546290377222
  N   5.81106928972688     -0.00044137256016      0.00658375945464
  H   6.33231428368099      0.85641567341784      0.00762806020595
  H   6.33217972716418     -0.85738075242803      0.00702458708015
  C   3.65460193025710     -1.16872131783825      0.00434637876070
  H   4.00934052942558     -2.18669669498037      0.00431229987300
  H   4.00968191080789      2.18609726277684      0.00579036057938
  C   1.12915565152215      1.40923821309163      0.00294229466769
  C   -0.09553593966625      0.74798063892638      0.00155827548572
  C   -1.26266545849285      1.56314919773082      0.00055330173138
  C   -1.05452941001093      2.97619577704293      0.00127518607663
  N   -0.93573957948149      4.13057165203384      0.00191293025248
  C   -2.61931191215735      1.24935233882006     -0.00106742185872
  H   -3.28845104256453      2.09721534908799     -0.00165414778790
  H   1.13934768898893      2.48904023116873      0.00326461641573
  H   1.13895798830802     -2.48918938521484      0.00178539466824
  H   -3.28878126266287     -2.09666564344151     -0.00216922208648
