28
Coordinates from ORCA-job ./opt_b97-3c_parallel
  N   -5.58149859192734     -0.03035372095811      0.17132451070467
  C   -4.42045392679389     -0.06639012503184      0.14813535417693
  C   -3.00824048586427     -0.03848255677872      0.07418658551661
  C   -2.41032191675410      1.19232655771728     -0.31390702362867
  N   -1.14903666354013      1.53085298721523     -0.06162984337244
  C   -0.05299431486513      0.84378125960454      0.10321978448325
  C   1.10649437043055      1.65280868193692      0.38951550980014
  C   0.92203833659780      3.02717701809999      0.66535297465066
  N   0.81967416225820      4.15774155684610      0.90607439960949
  C   2.36294941632015      1.11842040169726      0.23241092514726
  C   2.51540624874456     -0.27395284865623     -0.26128892042455
  N   3.77917508888530     -0.56283821899399     -0.49228449124266
  C   4.47481685213987      0.58914338142490     -0.14225876451436
  C   3.67313993644705      1.62697893959106      0.29043825811192
  H   3.97487865244350      2.61465101123218      0.59307951026077
  H   5.55096797664516      0.59508153385938     -0.23009233601241
  C   1.39213000044537     -1.11567048465142     -0.38778073048631
  C   1.59563058473934     -2.43131243087893     -0.86636770679058
  N   1.77709280813433     -3.47329957224456     -1.34251430934685
  C   0.11951261599345     -0.62364236266194     -0.07188003987164
  C   -0.95306409889582     -1.48706386001693      0.28544016008208
  C   -0.64643491586485     -2.81013646486627      0.70959860531896
  N   -0.48088365030520     -3.87253208753110      1.14648384126349
  C   -2.31395501726752     -1.19834788348327      0.38870701007315
  H   -2.92779594150043     -2.01974243113882      0.72867502956822
  N   -3.15499760623672      2.16302205207850     -0.86720078069720
  H   -2.75548001987322      3.08241492339902     -0.94053422652194
  H   -4.14482492985012      2.05521251672916     -1.00223693438961
