31
Coordinates from ORCA-job ./opt_b97-3c_parallel
  N   6.09474865307282      0.80344923634766      0.00057627658543
  C   4.94174416880390      0.65985526146678      0.00064389737599
  C   3.54992292599342      0.39702874375984      0.00059698565644
  C   2.71102098290777      1.50368909533978      0.00037002506294
  C   1.32550526501278      1.60758891125199      0.00022285760172
  C   0.85305345597279      2.95340021029055     -0.00009138494220
  N   0.59221839443867      4.08366579878852     -0.00065613873072
  C   0.31943431121966      0.60305498205959      0.00035108194060
  N   -0.91975660498929      1.09470108967962      0.00020663822771
  C   -1.95046824895889      0.26422334777951      0.00030151444891
  C   -1.81637181316182     -1.20976139414280      0.00054408539759
  C   -3.08051859423058     -1.77613228820910      0.00057066163314
  C   -4.00651227643220     -0.71387376111081      0.00036110282831
  N   -5.33415266744244     -0.80207940665945      0.00031098159506
  H   -5.90192212236793      0.02860546996497      0.00016175075823
  H   -5.80084144215623     -1.69032232816770      0.00043190198887
  C   -3.30838889891678      0.55936628008027      0.00019676105892
  C   -3.96618556284123      1.78798965207050     -0.00001925950503
  N   -4.61720113837995      2.75327627126828     -0.00013748146734
  H   -3.32020332589500     -2.82651925275722      0.00073232978690
  C   -0.52708454754240     -1.72445096592968      0.00071094761090
  C   -0.35612355585930     -3.12595975003722      0.00098214934250
  N   -0.23733068139979     -4.28199652690709      0.00145217824743
  C   0.60334718946422     -0.84539187597887      0.00060868060418
  C   1.85172378429702     -1.44490534992832      0.00075867334427
  C   3.17134886441044     -0.97066282187474      0.00077198339596
  N   4.14903306827687     -1.90634536708459      0.00100785962129
  H   5.12041910471765     -1.65158557766984      0.00087208590259
  H   3.92559090715883     -2.88332516554099      0.00098821283161
  H   1.80430507635646     -2.52774704831101      0.00092880127212
  H   3.22705420477055      2.45311617846164      0.00026304582569
