31
Coordinates from ORCA-job ./opt_b97-3c_parallel
  N   5.82323385223156      0.09800881952841      0.40656814959188
  C   4.66899472252673      0.11956975295036      0.26807091868968
  C   3.26834267703083      0.23486715200503      0.10694958819075
  C   2.73925425661315      1.54065955653127      0.14790564440182
  C   1.39572882513644      1.87128330697593     -0.10609316912155
  C   0.22445929201352      1.13976400788757     -0.20273357889316
  C   -0.94742468351946      1.92155675939651     -0.38328199556074
  C   -2.20185330237908      1.39333943535248     -0.25828319935447
  C   -2.33413738725815     -0.03316335860503      0.09926487403722
  C   -3.65910140791717     -0.30635057028983      0.26927327811972
  C   -4.38534641354870      0.92018494414578     -0.00294953834606
  N   -5.72525939945438      1.00781070462750      0.08257062318999
  H   -6.28036998980462      0.18033554149172      0.19669187307123
  H   -6.20392333005502      1.83295916388848     -0.22797314889957
  C   -3.49188972853271      1.94559661622725     -0.31961499417994
  H   -3.74454931358248      2.96812834957669     -0.54716194592498
  H   -4.10053981126718     -1.25143011909839      0.54220976540110
  C   -1.17580150044531     -0.84632259252801      0.18319904942559
  C   -1.40417130233803     -2.18082685291306      0.59667097103068
  N   -1.71753210687338     -3.21471272446669      1.02260865863022
  C   0.09572610306023     -0.32563496818024     -0.05507833995521
  C   1.21229042609670     -1.20007781310773     -0.26836487540199
  C   0.94907765339036     -2.52603105075477     -0.71657000191311
  N   0.82528999293926     -3.58706756396892     -1.17179824186746
  C   2.56828098739600     -0.94372256488545     -0.16620845366393
  H   3.20000805407996     -1.80691076934523     -0.32094981731051
  H   -0.82469398083414      2.98407857165730     -0.54874376304889
  H   1.23389703484411      2.94127003420658     -0.17832840306792
  N   3.57804494507156      2.57745121166529      0.42108323874903
  H   3.27001456867176      3.51767881040690      0.25949032656222
  H   4.57261803390740      2.43015867872589      0.42629711021702
