25
Coordinates from ORCA-job ./opt_b97-3c_parallel
  N   -5.30623236962548     -0.04406505292405      0.00304777028364
  C   -4.14477628981474     -0.03262695370694      0.00254971258733
  C   -2.73091514674368      0.07223314144033      0.00187293563165
  C   -2.02669227662864     -1.12814257827482      0.00159244139954
  C   -0.66375428328292     -1.39420284061551      0.00095096090806
  C   -0.34906507998009     -2.78575897565170      0.00083001229447
  N   -0.21937723072516     -3.93823876165761      0.00074450135702
  C   0.44715822185150     -0.50921585236073      0.00041291781385
  N   1.63258256193728     -1.12190657813744     -0.00012645574754
  C   2.70807731200968     -0.34701458220310     -0.00060412143918
  C   2.59283827892107      1.14946433712154     -0.00054385054165
  C   3.91584716113213      1.61080795685809     -0.00111502709976
  C   4.68271941286520      0.45293606611993     -0.00146037180835
  N   3.97283020832450     -0.73284751983206     -0.00116162088794
  H   5.76267403336968      0.40719976351214     -0.00193168073838
  H   4.26006227862821      2.63061099107111     -0.00125769947113
  N   1.43490247564451      1.76479099582960     -0.00003204107092
  C   0.32452250623911      0.96756119962856      0.00046593353464
  C   -0.84193792798304      1.71010518452373      0.00092094830125
  C   -2.20944947829035      1.38930520664888      0.00156532388800
  N   -3.07335256224873      2.43077129432523      0.00190764597781
  H   -4.06784232058785      2.29046475544465      0.00234182878905
  H   -2.73781815391322      3.37479095633532      0.00168178754726
  H   -0.62440010071783      2.77205754983401      0.00077550031866
  H   -2.65250896858144     -2.00891575133100      0.00192338297201
