30
Coordinates from ORCA-job ./opt_b97-3c_parallel
  N   -5.58706943948517     -0.66994538025193     -0.01070690358962
  C   -4.42962962619561     -0.56627266245770     -0.00754973881417
  C   -3.02476483363147     -0.37774689217156     -0.00376925714298
  C   -2.27236582260660     -1.53394246285980     -0.00193414931573
  C   -0.89308799244394     -1.74382271379274      0.00159730646218
  C   -0.57250929427433     -3.13320732769116      0.00240953164574
  N   -0.36815963071469     -4.27579360798688      0.00325082986149
  C   0.18494691585151     -0.82631766731731      0.00425952861758
  C   1.46898248976502     -1.37750961451237      0.00725221136960
  C   2.59923710263585     -0.58659253948469      0.01001925270788
  C   2.45614680270960      0.87835769636773      0.00988101691564
  C   3.74042361515232      1.37498290059439      0.01293191984621
  C   4.57342443656569      0.20998964587617      0.01470597110620
  N   5.90596447672560      0.18667511842816      0.01783919324743
  H   6.45223691309460      1.02711296283548      0.01882552492124
  H   6.37674984910258     -0.70120821465940      0.01851380209807
  N   3.88415678778962     -0.96606623706497      0.01295514134099
  H   4.06415842705651      2.40251345589822      0.01382170169414
  C   1.18204064683074      1.43526440030140      0.00694466352254
  C   0.02849834443455      0.65970471225965      0.00406934742222
  C   -1.21487003613914      1.37699723480061      0.00120344596628
  C   -1.09265936211867      2.79117427470595      0.00187163405315
  N   -1.09900820450066      3.95385173268496      0.00216129443216
  C   -2.57180449021339      0.97561174760873     -0.00233505109377
  N   -3.53396524989248      1.92797800557618     -0.00446957864160
  H   -4.50517042053745      1.67542171913210     -0.00732895783902
  H   -3.30429358757732      2.90490270496708     -0.00403179217668
  H   1.09561332051698      2.51097483062753      0.00688051255200
  H   1.59302129439858     -2.44946151780584      0.00741172333422
  H   -2.85856742639889     -2.44190504020798     -0.00354255730337
