31
Coordinates from ORCA-job ./opt_b97-3c_parallel
  N   6.40807235158261      0.05922370534846     -0.00325449519867
  C   5.25008149601266     -0.03718768789192     -0.00260069255538
  C   3.83554469433796     -0.06491551309947     -0.00145021543082
  C   3.16589109459815      1.20661876444834      0.00215179748545
  N   1.86389142701730      1.43328684741976      0.00078084034269
  C   0.79798067792675      0.65551144130878     -0.00094687948214
  C   0.72587585429399     -0.82765016049981     -0.00011500048134
  N   -0.43218325166249     -1.48862762671126      0.00067860687367
  C   -1.56388451380867     -0.80369115868435     -0.00028522024383
  C   -1.63533278008127      0.67156140135520     -0.00285547019268
  C   -2.98133035340092      1.04343632444797     -0.00370755631091
  C   -3.58659622134077      2.30230186956638     -0.00590023172602
  N   -4.20190253960344      3.28992328690603     -0.00758390684090
  C   -3.74676708317114     -0.16834328116144     -0.00152363032982
  N   -5.06597667839682     -0.23392626362374     -0.00143328784441
  H   -5.53874933183326     -1.12275028257863      0.00019348752342
  H   -5.62336227379079      0.60486626761293     -0.00301462608847
  C   -2.86674344472589     -1.30345119143691      0.00064140582417
  C   -3.31871232832843     -2.62329966632763      0.00309491891197
  N   -3.79522946196913     -3.68464337361019      0.00509465739062
  C   -0.43683831460810      1.36830429861129     -0.00314343784549
  C   -0.40098261724910      2.78305098517806     -0.00438270292029
  N   -0.39538694697984      3.94283349635421     -0.00529589047312
  C   1.87318909641631     -1.65461722446468     -0.00198510148971
  C   1.63655900765741     -3.05821957451315     -0.00328409554643
  N   1.55836801885251     -4.21568209375600     -0.00451079843607
  C   3.22651388009172     -1.30312378865858     -0.00305617499984
  H   3.90607650592085     -2.14348612250776     -0.00530096771593
  N   3.91456160014735      2.32312916685640      0.00655292724689
  H   4.91865220465877      2.30481945295654      0.00756316401822
  H   3.43548812413577      3.20667092145518      0.00762448103518
