29
Coordinates from ORCA-job ./opt_b97-3c_parallel
  N   -6.16511327590249     -0.68244053037885     -0.00045421575614
  C   -5.01766557064473     -0.51107881447505     -0.00046615463812
  C   -3.61010966016811     -0.30500364989583     -0.00028631757381
  C   -2.81768491641675     -1.45637669994767     -0.00071156370664
  C   -1.43738544640737     -1.57214238921019     -0.00054097129702
  C   -1.02688014730704     -2.94015267196688     -0.00119402924925
  N   -0.74633587799077     -4.06573307765642     -0.00207358368902
  C   -0.39439693078312     -0.59163377362791      0.00015736491541
  C   0.91006575351771     -1.07529937459724      0.00043569144462
  C   2.00060563695768     -0.22139782003240      0.00092113296846
  C   1.79105300055602      1.22334060135248      0.00108339909911
  N   2.94873536233783      1.90805419474284      0.00149646688492
  C   3.90974194723556      0.95996577303875      0.00162959285954
  N   5.19941280027157      1.27260889969123      0.00203306448125
  H   5.47334364050745      2.23951711837818      0.00224593654892
  H   5.90955409142386      0.56193233671826      0.00213807836494
  C   3.38080853651111     -0.39088869419370      0.00129141262412
  C   4.15147715569800     -1.55174867924298      0.00137125982084
  N   4.85186678612311     -2.48197367148440      0.00152100241461
  C   0.50508753963753      1.72329228916964      0.00086365549298
  C   -0.61083359986403      0.88027104121116      0.00048548705221
  C   -1.88024604294964      1.52180706192779      0.00051500504383
  C   -1.88058418367909      2.94957075500834      0.00091840493238
  N   -1.94160726765250      4.10812110601651      0.00108663093288
  C   -3.17961321706976      1.01354293406790      0.00025586187115
  H   -3.96221659434502      1.75827478525493      0.00046282250222
  H   0.37504833273255      2.79432065996270      0.00105365705773
  H   1.08245117283669     -2.14104251804302      0.00022558647339
  H   -3.35980516816631     -2.39068293198820     -0.00123135927549
