31
Coordinates from ORCA-job ./opt_b97-3c_parallel
  N   -5.83042328299394     -1.42235833423669     -0.56787150736929
  C   -4.70073024740473     -1.20153462608409     -0.41165910297817
  C   -3.33947533143544     -0.86992324886576     -0.19920652125192
  C   -2.43999410953237     -1.91968108896152     -0.27923970677136
  C   -1.06547774860797     -1.95709667390739     -0.08582931472682
  C   -0.51000533434631     -3.26848903031417     -0.09805582878038
  N   -0.17277716572936     -4.37822963699386     -0.12246905429410
  C   -0.13715875886550     -0.89128566407362      0.04061602332457
  N   1.12392682516465     -1.30374557709268      0.18552124434788
  C   2.09678196076026     -0.41015240066554      0.10942259417379
  C   1.87036550632120      1.00421170124173     -0.23233191158412
  N   3.00804025400058      1.68060417660962     -0.39787462746027
  C   3.98156549702443      0.77245746800328     -0.13316652966124
  N   5.25907391077077      1.10664034286825     -0.17732931494010
  H   5.98158982537673      0.43520227888306      0.01906963972249
  H   5.51452470996434      2.04937027010471     -0.41830143545596
  C   3.47769513922839     -0.54892728584326      0.18698202602690
  C   4.27900732795305     -1.65506990467281      0.46213939579604
  N   5.02851011141560     -2.51735457558076      0.68321343544889
  C   0.55607745610458      1.44945974618799     -0.33196955867972
  C   0.32916384176633      2.77144022336823     -0.78019147565387
  N   0.19131877956608      3.82828098911335     -1.23865600999349
  C   -0.50093212755577      0.53495309740612     -0.05548996570128
  C   -1.77744088683687      1.06138875243472      0.26026797184462
  C   -1.81568606805542      2.38824725957544      0.76089996539234
  N   -1.98615176742107      3.41312857724457      1.28197802003488
  C   -3.07808028313828      0.47636399187738      0.18347095948557
  N   -4.13842764147275      1.25209529932787      0.45947736110507
  H   -5.07208080074263      0.88270218482841      0.41601314036194
  H   -4.03038888612014      2.22509903289727      0.68844011539431
  H   -2.88921409345819     -2.87955329657947     -0.49103238125713
