27
Coordinates from ORCA-job ./opt_b97-3c_parallel
  N   -5.43744819609560     -0.42778092056164      0.13097909338912
  C   -4.29228445364762     -0.22753136456919      0.10672764881815
  C   -2.89035203257052     -0.06511719440711      0.05476150297130
  C   -2.12303960562771     -1.23684963470637     -0.12465684850811
  N   -0.79235579674478     -1.35717840834256      0.00572335777527
  C   0.18674078905042     -0.50240021239566      0.06113270540681
  C   1.48085229588266     -1.15942758534475      0.20643594492372
  C   1.50445246616983     -2.56518736090486      0.36942361455689
  N   1.52495677571271     -3.71616068500689      0.50818433305201
  C   2.63201920902832     -0.43038196711241      0.09923599159242
  C   2.57039405874949      1.02051126791329     -0.11989079298930
  C   3.88234283889206      1.41885836978131     -0.20046198447811
  C   4.65435238936737      0.21489081197696     -0.02992344186100
  N   3.92939833892955     -0.88029853289755      0.14697653991683
  H   5.73457160484310      0.15660801961842     -0.03645805333274
  H   4.26732800563322      2.41326204035791     -0.35501066111200
  C   1.33331432322225      1.67073802399121     -0.16513386649196
  C   0.14918428147198      0.97579859678899     -0.04933862801916
  C   -1.08847085442782      1.70194951307598      0.07138980666032
  C   -0.98319740889414      3.11749586759024      0.14961497786872
  N   -0.90620430886436      4.27448914944947      0.20841121874266
  C   -2.38477432543475      1.23895666234385      0.14725643334514
  H   -3.13904855769587      2.00210227980539      0.27457167871715
  H   1.30726382917421      2.74675327350717     -0.26225230345563
  N   -2.72448847623636     -2.40838446019601     -0.39515823624976
  H   -2.15966800770953     -3.23939390184024     -0.37624567741673
  H   -3.72286038167819     -2.49252199691492     -0.46868730562202
