33
Coordinates from ORCA-job ./opt_b97-3c_parallel
  N   6.30813035365120      0.44706738002720      0.26982155524167
  C   5.15352452073107      0.38353423293232      0.16047902431601
  C   3.74858579510230      0.23436515176104      0.04944383034871
  C   3.04401862244200      1.37579954883549     -0.30005550765023
  C   1.67891335187088      1.63411489298372     -0.37398099403022
  C   1.40356224449800      2.93206475143839     -0.88875359832044
  N   1.27542847478349      3.96099457009890     -1.41061881695941
  C   0.58920052576940      0.77491610584392     -0.06958522027701
  C   0.70840112175706     -0.68708518434613     -0.10276016769309
  N   -0.37461357533730     -1.48186677240495     -0.22602149677001
  C   -1.57490097858877     -0.95419135422329     -0.16501489862079
  C   -1.81207068629157      0.47291347267913      0.11488224416408
  C   -3.17994315050995      0.66539096268582      0.24409239676433
  C   -3.93653739506708      1.80938371610351      0.50499688046319
  N   -4.68154804623545      2.67932042701427      0.71093982266878
  C   -3.80943057353847     -0.61901304908454      0.00160054296402
  N   -5.11512651006235     -0.81791550286332      0.01903152829545
  H   -5.50010500565895     -1.73113802980823     -0.15808025207640
  H   -5.75013961080376     -0.06047896834368      0.21204407088750
  C   -2.81751594096898     -1.60407435604235     -0.24890595352974
  C   -3.10234801144225     -2.95030402988566     -0.48478750720393
  N   -3.43281685680071     -4.04892732716914     -0.67590841164767
  C   -0.69771120811240      1.31385108349934      0.16010527315268
  C   -0.89492018244723      2.66793977827421      0.52071227515356
  N   -1.11669965507662      3.73539328623787      0.91784492906770
  C   1.88493219596835     -1.45116422178915      0.04877966065495
  C   1.66374788616933     -2.85561421443626      0.09304381290081
  N   1.69922581384057     -4.01418034207092      0.17314117687704
  C   3.24739484784058     -1.08059153367184      0.24836899941041
  N   4.12179908086324     -2.04234145881748      0.58066949381906
  H   5.10425539444733     -1.84252898688614      0.65504194747121
  H   3.83096376532258     -3.00281849357290      0.65210360327936
  H   3.66844092008621      2.22704184750177     -0.53142723851976
