29
Coordinates from ORCA-job ./opt_b97-3c_parallel
  N   -6.01290496828373     -0.79532566695841     -0.00157605146907
  C   -4.87219347706671     -0.57376105334131     -0.00100635892195
  C   -3.46804289482637     -0.38972916999764     -0.00034615137076
  C   -3.01705267654307      0.92279272202874     -0.00031058213191
  C   -1.73505245292292      1.46310812207973      0.00024750734099
  C   -1.74350875207578      2.88813362580920      0.00003557278637
  N   -1.77837274151238      4.04817351433220     -0.00007949570333
  C   -0.45985693076355      0.83138577784234      0.00096843293830
  C   -0.27607608934526     -0.63957023649951      0.00128885173236
  C   -1.28123255661391     -1.60269498361448      0.00091937320425
  C   -2.67909064049937     -1.57105349894796      0.00020994021269
  N   -3.31520109867338     -2.76552735579079      0.00002002873504
  H   -2.79474600452843     -3.62173824950805      0.00054967710148
  H   -4.31733003261528     -2.82900651968425     -0.00034565311191
  H   -0.85247335682079     -2.59748564077121      0.00127679217221
  N   0.95275102662196     -1.20791845085673      0.00199020889843
  C   2.00592831118185     -0.41662031872981      0.00239474336832
  C   1.92748073313757      1.05615466106211      0.00213412803366
  N   3.13667197185943      1.62700156521685      0.00266068729858
  C   4.00938755211585      0.58135683180751      0.00325060685192
  N   5.31923346697562      0.79398595149215      0.00388543723403
  H   5.66444258460060      1.73754550820439      0.00390393031479
  H   5.97120072879331      0.02968675827092      0.00429135363491
  C   3.37433105160648     -0.70788511558760      0.00310754804577
  C   4.04265293108352     -1.93020191409317      0.00361526283734
  N   4.66847308224599     -2.91216573023936      0.00391126610794
  C   0.67746430277346      1.63978524429711      0.00141348574947
  H   0.58941191648276      2.71599257906347      0.00120817069977
  H   -3.80819229998746      1.65929333781360     -0.00080380958962
