25
Coordinates from ORCA-job ./opt_b97-3c_parallel
  N   -0.38096376884673     -3.54025865236269     -0.01234718514082
  C   -0.26996784541799     -2.38579834680626     -0.01116592733350
  C   -0.20574624473760     -0.97064015492116     -0.01003042435491
  C   -1.38332051980049     -0.22820304301406     -0.01448665347767
  C   -1.32427732915277      1.24527479715474     -0.01370837502245
  C   -2.64099837226868      1.66175361844243     -0.01921594204501
  C   -3.40271854788545      0.45643852227828     -0.02299400322425
  N   -4.73524492686205      0.34810113733051     -0.02767697433676
  H   -5.33396734211512      1.15090024168099     -0.03711117477056
  H   -5.14624416737121     -0.56822932925528     -0.03515802890046
  N   -2.64319513534250     -0.67315856701383     -0.02008677837063
  H   -3.02087376490397      2.67015466345275     -0.02020803108044
  C   -0.09024243859954      1.88182220370066     -0.00803972211602
  C   1.10113476688303      1.16466457835917     -0.00332190470370
  C   2.29265837854112      1.91264183577308      0.00226252969065
  C   3.61380740838490      1.52318258628281      0.00772126846882
  C   4.11917524980636      0.22789457009389      0.00908630775155
  C   3.39415806413295     -0.95201441523802      0.00520069171138
  N   2.08676103484122     -1.17251259713001     -0.00052225350386
  C   1.06412876644989     -0.32852741871291     -0.00431481028242
  H   3.97766305446147     -1.86810080999392      0.00708959525000
  H   5.19720354876069      0.11870379974604      0.01365374120877
  H   4.34172902109071      2.32491467065253      0.01135443355602
  H   2.13424282975744      2.98545413438114      0.00222113647387
  H   -0.04243336650571      2.96357490351910     -0.00728876624756
