26
Coordinates from ORCA-job ./opt_b97-3c_parallel
  N   3.60272949136001      3.48977377279273      0.94076406897233
  C   3.13165499942761      2.46101213802053      0.67626568762332
  C   2.59184653941797      1.20739035353480      0.36353245536749
  C   3.33817077997647     -0.01225754042966      0.25593712928389
  C   2.51087216722470     -1.06916919738900     -0.08425379678248
  C   2.90294013124070     -2.40232269244494     -0.26783697830695
  N   3.23549163496585     -3.50553417150785     -0.41830694130514
  C   1.18028051650070     -0.53923245174638     -0.18424439305014
  C   1.25872483001623      0.91464477484106      0.08190275136226
  N   0.23308218761527      1.75363859478915     -0.03743290826812
  C   -0.96447417410368      1.25227638849841     -0.29210217413518
  N   -1.90056980570218      2.13627115254209     -0.67988872619483
  C   -3.19263083949794      1.98532598079376     -0.74855966782753
  N   -4.02467035307663      1.09962454765728     -0.18368320104547
  C   -3.66232726010156     -0.09547639555304      0.22772423682885
  N   -4.57728838158708     -0.80341961297697      0.91243938415656
  H   -5.46857184109138     -0.38003832462158      1.10354259725996
  H   -4.38771239424893     -1.71779098842329      1.27736403483045
  C   -2.42360799539051     -0.77420901682463     -0.06401393101706
  C   -1.20878196505154     -0.21292247722979     -0.29592281732021
  C   -0.04822594009565     -1.09082316522158     -0.39136616723103
  C   -0.25254067730954     -2.47814291271143     -0.57742729017611
  N   -0.50586397190044     -3.60089742103185     -0.72487771839058
  H   -2.46564385157398     -1.85664041820650     -0.01919337809810
  H   -3.70993160062799      2.77918892794311     -1.27764010105251
  H   4.40114008871358     -0.08861009449439      0.41711475541635
