30
Coordinates from ORCA-job ./opt_b97-3c_parallel
  N   -3.69300059238016     -3.26565748326284      0.25479141387580
  C   -2.99200846187744     -2.33863575708328      0.20097217090310
  C   -2.08556448894688     -1.25755708675819      0.10237454082571
  C   -2.61844077559934      0.00122690028308      0.31899850042498
  C   -2.08476646528455      1.25912273154297      0.09919904778126
  C   -2.99051709967303      2.34102466319144      0.19509259664147
  N   -3.69091291625425      3.26862952440723      0.24660330346987
  C   -0.74804633024244      1.58139436353251     -0.29757929745739
  N   -0.56548399612721      2.84291928612789     -0.73331830462836
  H   0.28536794177120      3.11381097609283     -1.18512354350510
  H   -1.32905274417663      3.49677105131567     -0.75057718238761
  C   0.39449757220610      0.73298037464023     -0.17148158016674
  C   1.63236539016037      1.39341968180644     -0.06634028470441
  C   2.83388822482153      0.73051615831929      0.03798204578701
  C   2.83342394974430     -0.73220949835775      0.03989263072445
  C   4.15820130824562     -1.15321748145178      0.22648646196127
  C   4.95318201736994     -0.00114647121835      0.32356256906672
  C   4.15893280550476      1.15117170701032      0.22347277640900
  H   4.50577046980426      2.17106227040046      0.27887222314573
  H   6.02443655989403     -0.00130566737886      0.46238527731652
  H   4.50439413996659     -2.17317920985671      0.28455218612687
  C   1.63147940019444     -1.39461420716626     -0.06271765296184
  C   0.39403459166118     -0.73366044915373     -0.16958801156545
  C   -0.74903886017759     -1.58167528366167     -0.29354887875321
  N   -0.56725580433747     -2.84442302118638     -0.72606411088332
  H   -1.33123153652622     -3.49784161808168     -0.74166983130863
  H   0.28343549488943     -3.11700219576817     -1.17715799682156
  H   1.64606962824921     -2.47040715522378      0.04231074639135
  H   1.64765055305982      2.46947286386252      0.03588839377447
  H   -3.66074311133959      0.00192144747689      0.60802286461803
