34
Coordinates from ORCA-job ./opt_b97-3c_parallel
  N   -4.12938346295900     -3.08364870833125     -1.45828913571096
  C   -3.43873534337875     -2.25646887828299     -1.02341280627801
  C   -2.57808609162756     -1.26250198642307     -0.49036063354800
  C   -3.12575376193555     -0.02348869681354     -0.22701432896167
  C   -2.51177897199221      1.11679784246292      0.29500807359570
  C   -3.38396355842446      2.16353509159071      0.67076157573678
  N   -4.05558826621185      3.06064482236589      0.98650945714454
  C   -1.11219507671666      1.40315962420386      0.37999979224976
  N   -0.80052143656477      2.62078448588802      0.85657119033719
  H   0.15827841643138      2.93284346561139      0.83962423399819
  H   -1.52166674758974      3.29824404915513      1.03876343904235
  C   -0.03331710448338      0.52308555856466      0.02909073183699
  C   1.23634663939379      1.03881350751718     -0.27090857384247
  N   1.44595998338398      2.36717566585695     -0.63464467304059
  H   0.74831204618600      2.73811629926997     -1.26120735060132
  H   2.38886904651431      2.51016781065275     -0.98941031270043
  C   2.37138772100879      0.21427918792372     -0.15135466286165
  C   2.26161025215019     -1.14268144831451      0.33800329676110
  C   3.57359955784278     -1.67294615765517      0.43168438620620
  C   4.45521463087576     -0.68888105761326      0.01376113124169
  C   3.72979936574786      0.48059428818685     -0.33609807341663
  N   4.25971874060959      1.73410455165363     -0.75976788312907
  H   4.52433918837928      2.30915899733864      0.03225299924873
  H   5.09428492061124      1.60192999848812     -1.31531863745813
  H   5.53120686476069     -0.77924446131638     -0.02547441900614
  H   3.85168117996229     -2.67034537592046      0.73583596448303
  C   1.01735164889965     -1.70962547655946      0.53519731659690
  N   0.88521720975922     -3.01681850130228      0.91443067017482
  H   1.73189455692222     -3.50299166940272      1.14871872387719
  H   0.10712376929968     -3.25677781027095      1.50217427707442
  C   -0.16559343658136     -0.94269857350587      0.19381125095637
  C   -1.27196595739648     -1.67992972433972     -0.13781476724850
  H   -1.12886852505357     -2.75096920273419     -0.18140556673249
  H   -4.19015359971003      0.06943531020070     -0.39855288124369
