29
Coordinates from ORCA-job ./opt_b97-3c_parallel
  N   5.77361231869202      0.39263512927413     -0.29820662587001
  C   4.61441944230689      0.31448899762189     -0.25085583530352
  C   3.20518785172737      0.29219399080365     -0.15350902262223
  C   2.56101132830722      1.49996546959549      0.25363488400668
  N   1.29623216247345      1.81299768184734      0.03724251031216
  C   0.20961519829915      1.09948936757519     -0.16773796334475
  N   -0.86467891692670      1.83676258220938     -0.51139785126434
  C   -2.06098735906790      1.29672460466310     -0.37811306535136
  C   -2.27906729321251     -0.06040179952722      0.22110025844028
  C   -3.61700328338789     -0.24587820811269      0.37362765365708
  C   -4.26314105284165      0.94119727735366     -0.16306702508851
  N   -5.58864494796105      1.08951247112445     -0.19474924357388
  H   -6.01348836232245      1.90831657945142     -0.59047737386221
  H   -6.19991478277112      0.37713686546660      0.16004196153477
  C   -3.30859411629511      1.86494236483599     -0.61999272581497
  H   -3.49637646006575      2.84493115814397     -1.02375431384037
  H   -4.12312310378623     -1.11450566533585      0.76296398768498
  C   -1.14935805596669     -0.88357261159004      0.39562698390223
  C   -1.36397270474717     -2.18097248117769      0.91381276525568
  N   -1.64527226154897     -3.18708355426581      1.42086784738288
  C   0.10699933534399     -0.37820553276710      0.04720180964298
  C   1.19860135411168     -1.22532623506174     -0.28280213213577
  C   0.92123235564584     -2.57823517301658     -0.62433751035832
  N   0.75909463198899     -3.67101176540784     -0.98128647928068
  C   2.54660607907348     -0.89663111890339     -0.42414301592753
  H   3.18103936965288     -1.70862443123277     -0.74967492187364
  N   3.29822547531259      2.47177163452198      0.82943698963993
  H   2.88359125914838      3.38283297588722      0.91023766526552
  H   4.29546866830099      2.38786770483961      0.91518177316464
