30
Coordinates from ORCA-job ./opt_b97-3c_parallel
  N   -3.37374825831896     -4.05784947366419      0.06411993878213
  C   -3.14680157393467     -2.91681954767492      0.04559824179376
  C   -2.80815350098899     -1.55966474180834      0.02309664077757
  C   -3.65378330509328     -0.46235761638589      0.00338625966570
  C   -2.89904600900582      0.75037014482737     -0.01745308030709
  C   -3.47692680287492      2.02665079633224     -0.04099396386538
  N   -4.00283474219025      3.06343462628663     -0.06066310349777
  C   -1.53870606630610      0.40816221811262     -0.01121081096610
  C   -1.46443627080744     -1.05412346259814      0.01496519459285
  C   -0.27074512189438     -1.69513506476699      0.02696639340719
  C   0.95737200666195     -0.97203569280735      0.01235065999528
  C   2.09681096469547     -1.73715016515714      0.02140877860812
  C   3.47512719577219     -1.38207399317286      0.00181193435789
  N   4.04285965603612     -0.19436043569021     -0.00361163133693
  C   3.42299358111565      0.98769937288100     -0.00345168823617
  N   4.28200666665449      2.04369180092768     -0.02916620439438
  H   5.25414420232613      1.85155805809985      0.12975143632827
  H   3.95566961865146      2.97380104278115      0.15532468387451
  C   2.05213655390954      1.30086441035582     -0.02051270332050
  C   0.91814331988189      0.50428770403095     -0.01142668399373
  C   -0.35498155819313      1.14860356389339     -0.02236320128267
  C   -0.39816416738389      2.56095310624642     -0.03824209946198
  N   -0.36464438740630      3.72204104800601     -0.04838667334666
  H   1.85184953072612      2.36382980191990     -0.04515358073375
  N   4.34882720942172     -2.42636691592077      0.02994342848395
  H   5.31843112550601     -2.21379542050769     -0.12319296210236
  H   4.04369692662372     -3.35737833756752     -0.18285588804480
  H   1.91830466019429     -2.80556717421571      0.05123712064213
  H   -0.23755740801135     -2.77640472865678      0.04655860375805
  H   -4.73094078436725     -0.50318291260654      0.00331328282286
