36
Coordinates from ORCA-job ./opt_b97-3c_parallel
  N   -3.88598035045093     -3.49783301702205     -1.44082767606888
  C   -3.32034351264062     -2.57888293444121     -1.00849741888300
  C   -2.60445387537994     -1.47679755800273     -0.47636429841940
  C   -3.30405972066281     -0.32002484327833     -0.23494576144500
  C   -2.84279075975536      0.89272952086279      0.30399799016545
  C   -3.83983630172980      1.80611977589792      0.70763011177120
  N   -4.61836458488842      2.60364934322784      1.04749594547413
  C   -1.49721020276026      1.35183856716363      0.39054830517446
  N   -1.33329895053063      2.58356571325589      0.90841508658337
  H   -0.42242055996909      3.01182675431083      0.91527329406141
  H   -2.13177308881165      3.15593706658758      1.12613041437478
  C   -0.31208433126073      0.63190176636004      0.00000553712404
  C   0.86577770062907      1.32249545048500     -0.32223408868115
  N   0.87043423471334      2.67902577609397     -0.67410425403310
  H   0.06497683606189      2.95200945733009     -1.21671074110732
  H   1.71991299480280      2.93061255547013     -1.16337853934953
  C   2.10560721811949      0.66758480263572     -0.25621489338863
  C   2.18607667041208     -0.72143192575624      0.14043133666443
  C   3.56542124613719     -1.08799074048534      0.15080750807569
  N   4.02874097613121     -2.37566771158827      0.46139712482087
  H   5.03676615655187     -2.42220326034977      0.48146823207416
  H   3.69177885119617     -3.07466313004556     -0.18866666186603
  C   4.30482893125797      0.04182515268774     -0.16563793396915
  C   3.41744494546233      1.12885317991811     -0.39780040649809
  N   3.79478604463525      2.44801166475768     -0.70948919798733
  H   4.78713373074347      2.52721234848588     -0.87367095304309
  H   3.54115749474795      3.10691279720631      0.01508030271878
  H   5.38256209743483      0.09662601361725     -0.22683069236702
  C   1.05498130552670     -1.43494760214283      0.45358188590920
  N   1.12872622430432     -2.72038995368922      0.91940847307287
  H   0.36590793511162     -3.02545458683355      1.49902600762016
  H   2.03634797930131     -2.98733038103594      1.27441857031055
  C   -0.24374995612248     -0.83710607732873      0.16032507120293
  C   -1.24721891107772     -1.72076354842380     -0.11359804586054
  H   -0.97757916173515     -2.76778970690118     -0.11878615214325
  H   -4.36818740531503     -0.35731299172807     -0.42845004738839
