30
Coordinates from ORCA-job ./opt_b97-3c_parallel
  N   5.81466540159701      0.26465952962700     -0.01604198701165
  C   4.65282653897687      0.22131949252691     -0.04254296507185
  C   3.24002898119489      0.24857210013822     -0.04321022493075
  C   2.62092971689974      1.50027387768689      0.22866012079106
  N   1.36191627967331      1.83159130655976     -0.03055044460827
  C   0.26257135615953      1.11721120836014     -0.18627558805411
  C   -0.88561551556852      1.88332538268555     -0.48973671072195
  C   -2.14718570042969      1.36556909159008     -0.35523269761638
  C   -2.30003337007382     -0.02348374245884      0.14120187815776
  C   -3.62731359520755     -0.26431848062244      0.32249610200188
  C   -4.33638967740471      0.94229857498490     -0.07489241776482
  N   -5.67154407186435      1.04574035164014     -0.02611786278767
  H   -6.24130745530010      0.26745674322939      0.24801213504399
  H   -6.14252921104024      1.87272937212054     -0.34324313633280
  C   -3.42728484745978      1.92277269098939     -0.48126185118639
  H   -3.66513141327591      2.92227824151199     -0.80526981099476
  H   -4.08445332308238     -1.17459140979479      0.67583019406132
  C   -1.15535647239678     -0.84793574003287      0.29490716740646
  C   -1.39277195830140     -2.15786839521875      0.77222158323742
  N   -1.69819242494581     -3.17344642220922      1.24569397624392
  C   0.11714951263791     -0.35704703193325      0.01274907372152
  C   1.20933051487875     -1.22791569571097     -0.27410847602667
  C   0.92171264100158     -2.56335487284427     -0.67103610335924
  N   0.76108661133506     -3.64041031637973     -1.07409049450582
  C   2.56797808589177     -0.93590714272769     -0.31978202650134
  H   3.20358059075119     -1.76884158662021     -0.58439518111714
  H   -0.72403996265820      2.93055875520042     -0.70127073875716
  N   3.37382952108392      2.51191143893967      0.71848676818270
  H   4.37110106056095      2.42328100081865      0.80049793986923
  H   2.97723347586446      3.43368435824505      0.69406156633118
