32
Coordinates from ORCA-job ./opt_b97-3c_parallel
  N   5.65991715122263      0.72560004990022     -0.41182068034291
  C   4.51766950563605      0.57658351445988     -0.25650864987119
  C   3.13534067420471      0.32435039423363     -0.08447909236014
  C   2.35426228246770      1.42054944780601      0.27238724388824
  C   0.98077962599063      1.56345924484675      0.34385088298042
  C   0.58316578637335      2.83760128371438      0.83710066379750
  N   0.33592563383213      3.86072804032867      1.32750014267226
  C   -0.04326552050161      0.60817922164002      0.05113416790406
  C   0.17439779999750     -0.84625470909722      0.22917189302933
  C   -0.94756366701379     -1.66534415903282      0.47263455808364
  C   -2.23244821654784     -1.20945123440388      0.30790133361738
  C   -2.44422705588988      0.17745224282323     -0.15727192677446
  C   -3.77794855547848      0.36040294799574     -0.36499613515168
  C   -4.43171918370945     -0.88903953886251     -0.01267425152268
  N   -5.75646349066617     -1.06254917859361     -0.08781259942222
  H   -6.18608902099858     -1.92908950066066      0.17918916261858
  H   -6.36103032303681     -0.32152427837353     -0.39003448589921
  C   -3.48001937545398     -1.83360489924878      0.39533946318551
  H   -3.67369155310352     -2.85177714148606      0.68904599667640
  H   -4.27216972938952      1.25735980506242     -0.70146737364859
  C   -1.33297302246804      1.04885696505991     -0.24704122985630
  C   -1.61080600088072      2.36092724299293     -0.69735593348952
  N   -1.94694951259705      3.37283261364963     -1.15730095345388
  H   -0.79199941221433     -2.70903135019623      0.70066350238482
  C   1.41583022588983     -1.50671395435444      0.08404188257597
  C   1.37633232815771     -2.92411944533982      0.16436586610064
  N   1.43676406179599     -4.08405051921822      0.20645321835716
  C   2.72666150821531     -1.02143687510402     -0.22699336044657
  N   3.65745347685395     -1.92010661679864     -0.61800421788850
  H   3.46407117171595     -2.90546373297222     -0.59849934660492
  H   4.62085001727513     -1.64420840041578     -0.69480769138697
  H   2.91545839912583      2.31713042363438      0.49412730004771
