35
Coordinates from ORCA-job ./opt_b97-3c_parallel
  N   -5.85354638088220     -0.32144048079107      0.93776286929650
  C   -4.73831663564379     -0.23800804415742      0.61737261160788
  C   -3.38864140999725     -0.10473746319542      0.23227622214303
  C   -2.85969019244522     -1.16634190450595     -0.57236252625300
  N   -3.74958441446564     -1.96523020275710     -1.18739807866187
  H   -3.45061378749812     -2.81958650577532     -1.62645098685035
  H   -4.73763598940205     -1.82686875468674     -1.07395258221359
  C   -1.49230285429177     -1.46683511483271     -0.66630845272612
  C   -1.18723830254969     -2.61193522943886     -1.42968124708320
  N   -1.04035001713807     -3.53166359131385     -2.12715626903749
  C   -0.38608238897383     -0.72586318043500     -0.12365815951052
  C   -0.37496417272546      0.72706741306250     -0.19358034649361
  C   -1.45135045304978      1.52484471236537      0.14750885491506
  C   -1.28010814781395      2.92682027691663      0.28974874227859
  N   -1.28521612288760      4.05880587633537      0.54960756457240
  C   -2.76202386230766      1.08468216874590      0.61718376007684
  N   -3.42997718524555      1.93809198226196      1.40960026176367
  H   -4.38044910068264      1.75128406333877      1.67965485624924
  H   -3.06821730338792      2.85486918166268      1.60712309669484
  C   0.91386302840247      1.36043618895422     -0.49895382158149
  C   0.96173180696569      2.61681440410252     -1.14398672150177
  N   1.01171418587797      3.58019267262877     -1.78957678638864
  C   2.05916016975562      0.68998956594405     -0.18235349168924
  C   2.00775210417058     -0.67880732260876      0.31221901076902
  C   3.30711054058236     -1.05340348611524      0.62687616984983
  C   3.76886388728410     -2.27092022159306      1.14099221600287
  N   4.21232706980154     -3.25159240157209      1.58009026199097
  C   4.18297552109337      0.05695743748609      0.31624593670697
  C   3.45538361918214      1.10397069160611     -0.18638552285162
  C   3.96663254638669      2.35852699514024     -0.54736928017771
  N   4.41668986474471      3.39012801927786     -0.83406026741067
  H   5.24922750720524      0.04817612368408      0.46887036860564
  C   0.78794208433728     -1.38567771446346      0.24544241032129
  C   0.75279667295975     -2.76578301397265      0.55109316134261
  N   0.70737198485083     -3.88206738678831      0.86475027044600
