30
Coordinates from ORCA-job ./opt_b97-3c_parallel
  N   5.82552378835677      0.01087341527655     -0.28224803463159
  C   4.66850262615256      0.06223343320599     -0.18655438881235
  C   3.26426259425284      0.21095333946803     -0.07633532920481
  C   2.76348540636372      1.53591677447685     -0.14649817839930
  C   1.42983623402197      1.88999909179283      0.06330312236053
  C   0.23194817197779      1.18388376688338      0.16680325374323
  C   -0.91148073425330      1.98636348567321      0.34198855236618
  C   -2.18211655112508      1.46629200966517      0.25378317113528
  C   -2.34303016328921      0.04161264390861     -0.09154939779834
  N   -3.61208022026242     -0.29018774940038     -0.24874787562518
  C   -4.30531128408977      0.87866705208523      0.01025537683973
  N   -5.63721752373233      0.84128966697040     -0.06033024137165
  H   -6.20437801089176      1.64161420807096      0.14461193229833
  H   -6.08433767054551     -0.03078989065493     -0.28128322341014
  C   -3.47470870811162      1.97575923411194      0.31667582874794
  H   -3.78118248515082      2.98511481564038      0.53373935281169
  C   -1.21408515997037     -0.79330760982366     -0.20940860192701
  C   -1.44956570681250     -2.11550459775975     -0.65644680341036
  N   -1.70466999418194     -3.14942063969372     -1.11734316186943
  C   0.07424143462745     -0.28348552396242      0.02924797840641
  C   1.16258781523780     -1.17581602946146      0.23603428348674
  C   0.88145940846767     -2.51017080978240      0.65052427542249
  N   0.76834347327956     -3.57665096782328      1.09482771025534
  C   2.53537036703386     -0.94433970526773      0.16366574180822
  H   3.13993358886012     -1.82807864315410      0.30989548345588
  H   -0.77109240971615      3.05050912591779      0.47818745858234
  H   1.28281808052527      2.96385878470095      0.10435060493516
  N   3.64332197433879      2.54441684212451     -0.40806132413459
  H   3.35856139474924      3.49326005993191     -0.25212350425213
  H   4.63196991098720      2.36984264867731     -0.35429884680695
