29
Coordinates from ORCA-job ./opt_b97-3c_parallel
  N   -2.93423063422950     -4.21593046367403     -0.00012360088416
  C   -2.83691101451566     -3.05730856017281     -0.00020634223275
  C   -2.66869005791128     -1.66702733892440     -0.00026418235705
  C   -1.41040783094335     -0.98463261654108     -0.00017975683706
  C   -1.68557272117246      0.45162559400158     -0.00027358507405
  N   -0.72322942643583      1.36095568628079     -0.00020308003515
  C   0.55058795568630      0.97173913025685     -0.00007751030936
  C   1.46071625888132      2.06513615306318      0.00010537779459
  C   0.87383172159589      3.36182234494629      0.00018727445263
  N   0.53044023752974      4.47047201413163      0.00032361224001
  C   2.85096071551834      2.07076704560614      0.00019235307553
  C   3.74917503454598      1.02951788821812      0.00010483728309
  C   3.53397405708554     -0.34975559343856     -0.00004579832255
  N   4.63373408013220     -1.13976882556878     -0.00032095159095
  H   4.57437930894525     -2.14197746461309      0.00013564443599
  H   5.54920211714641     -0.73281364355161      0.00027464503537
  C   2.24650272735322     -0.98587966757255     -0.00000428057995
  C   2.35177790894770     -2.40466732910393      0.00008664649300
  N   2.55524662643670     -3.54795880775020      0.00017001153883
  C   0.94413790868572     -0.45592647942498     -0.00003654102080
  C   -0.11951019029434     -1.40403821337815     -0.00005366699430
  H   0.10053834886385     -2.46185009668265     -0.00000763953227
  H   4.79050465125805      1.32818017523242      0.00012927300243
  H   3.29631157126822      3.05567620692813      0.00032893090924
  C   -3.07645577676804      0.61568760359362     -0.00041146465295
  C   -3.78963903267279      1.82032084201005     -0.00050875454255
  N   -4.40292068153631      2.80758368914243     -0.00036794915302
  C   -3.65744013785273     -0.69062533518926     -0.00041290309229
  H   -4.71807579304812     -0.88207086712516     -0.00051200334947
