24
Coordinates from ORCA-job ./opt_b97-3c_parallel
  N   -1.83505737258791     -3.81343483330268      0.41650799255273
  C   -1.31361813338893     -2.78539433712080      0.29602301495909
  C   -0.67040024512398     -1.53198824817093      0.17261201657724
  C   0.70095015281642     -1.42905539174178      0.15655170659056
  N   1.60400801138581     -2.44442425591389      0.26134988656154
  C   2.78618480680938     -1.86517864406169      0.11805991839934
  C   2.72026725163250     -0.43796347526363     -0.08604567797544
  C   3.82077285813187      0.40783727443338     -0.26526727427939
  N   4.76412357707385      1.07006012234349     -0.41379259982432
  C   1.36478367285448     -0.13590030395895     -0.06258116179695
  C   0.60857901287921      1.04174118941151     -0.13286754428186
  C   1.23976279748275      2.30545032475527     -0.20762256679357
  N   1.71862362331805      3.36111419395416     -0.26231794654397
  C   -0.79376358034874      0.97299070411210     -0.05672580394520
  C   -1.53169178854845      2.12235493334529      0.25390348906273
  C   -2.90376348089590      2.27977291250940      0.38384797681688
  N   -3.88992858956162      1.50400048222110     -0.06197359355069
  C   -3.71921435380571      0.28776395609278     -0.53651245042195
  N   -2.72181900040821     -0.57392359971019     -0.34197145286451
  C   -1.46257873377047     -0.35434070061116     -0.05648709180936
  H   -4.57012799646533     -0.13276287729300     -1.05971509194839
  H   -3.23814166304419      3.20677407586090      0.83549627096796
  H   -0.94901210273567      3.00488807685131      0.49028060232696
  H   3.70049865640078     -2.43968172014201      0.15457542642056
