27
Coordinates from ORCA-job ./opt_b97-3c_parallel
  N   -5.60900530664727     -0.45172914692840     -0.40976321452009
  C   -4.45930931870349     -0.30267380620226     -0.31449721028901
  C   -3.05861446301578     -0.19672067033014     -0.17190329310234
  C   -2.34141153530042     -1.39539565431212      0.10536584652317
  N   -1.03751742505753     -1.59776856221928     -0.02374359965656
  C   0.00525174337059     -0.80204768868985     -0.11752048258831
  N   1.14942129938232     -1.47973969927567     -0.36450868807138
  C   2.28987237099278     -0.84394587023394     -0.23306312881043
  N   3.50461604374250     -1.39223167699678     -0.42118663714938
  C   4.36526180996284     -0.40218924496559     -0.10980914921334
  N   5.67788598399843     -0.60794361674786     -0.18779295917119
  H   6.01293955368193     -1.50820181895351     -0.48425876973865
  H   6.34184741535142      0.10746447259974      0.04127230637478
  C   3.73602963310664      0.83663556603043      0.29114958249712
  C   2.39692703286248      0.57790927894245      0.20565913704319
  C   1.21658587471241      1.30735193882055      0.32649909215659
  C   0.00732238355989      0.68262257005556      0.09579205356021
  C   -1.17618809932098      1.47110582535748     -0.05648977040779
  C   -0.99982360240150      2.88201869330416     -0.06463839893309
  N   -0.85896367875875      4.03479413340725     -0.06509698049541
  C   -2.49107141961291      1.07219700464254     -0.23517095346999
  H   -3.19385745095316      1.87463010258953     -0.41023205222747
  H   1.24667125457427      2.36965044523800      0.52379583772580
  H   4.23321247459548      1.75263723606157      0.56643900012836
  N   -3.03009098143656     -2.49464791778485      0.47503762846054
  H   -2.53491352304445     -3.36818024463414      0.48622197207045
  H   -4.03358790704132     -2.50122810347458      0.51436939320416
