27
Coordinates from ORCA-job ./opt_b97-3c_parallel
  N   5.32178775111929      0.14638413470015     -0.03710665160544
  C   4.15994376788450      0.07898960712909     -0.04661927395061
  C   2.74931744689469      0.08064580665646     -0.04405261410266
  C   2.12524001477024      1.33347043784709      0.07049007663120
  N   0.81393258893572      1.63100993687430     -0.08130384588348
  C   -0.25102398303037      0.87034774621601     -0.10386084730562
  C   -1.46055385192854      1.65790217285201     -0.24479124946517
  C   -2.68117910539805      1.09869654074906     -0.11763996898840
  C   -2.79933207474786     -0.34044843606439      0.11779133348098
  C   -4.13712942104831     -0.62556964009823      0.21921234779298
  C   -4.88107556116022      0.61228912984434      0.05063278330726
  C   -4.02299993216904      1.64853334848420     -0.14997952990276
  H   -4.27264719046390      2.68499987923723     -0.30591186837376
  H   -5.95785670326066      0.68152243785458      0.08250728220408
  H   -4.57658812255466     -1.59570680506247      0.39187910418423
  C   -1.63920542246918     -1.12945721300379      0.16347203050707
  C   -0.37988050982698     -0.59217358210860      0.03647291764348
  C   0.76662389220226     -1.47593629902732     -0.07021361841613
  C   0.48426190590363     -2.86587630554756     -0.14771098427051
  N   0.25166478027074     -4.00255186422016     -0.20424030598284
  C   2.09968079537796     -1.17096471848006     -0.12643114851600
  H   2.76823052590927     -2.01383728561540     -0.22712641713231
  H   -1.74580950205348     -2.19975903393895      0.27403048863351
  H   -1.31574769523058      2.71915702111307     -0.38761862653368
  N   2.86650784500429      2.43552864503182      0.30962906980065
  H   2.41338289862044      3.32707642917196      0.23061028002216
  H   3.86833146934881      2.39658208580507      0.37159916322223
