26
Coordinates from ORCA-job ./opt_b97-3c_parallel
  N   -5.32414282179320     -0.11884677517978      0.02413453302983
  C   -4.16317790935469     -0.08085314169625      0.00619973019423
  C   -2.75224349806231      0.05409657294008     -0.01005141865448
  C   -2.02179181744710     -1.13606875060364     -0.00680604299163
  C   -0.65741864559936     -1.37230178124535     -0.00590966838666
  C   -0.31312694433113     -2.75688914561410     -0.00033275213468
  N   -0.16404385283570     -3.90713846335837      0.00445918532784
  C   0.44221308420297     -0.46519525931092     -0.00618619361175
  N   1.62674347870714     -1.05540420107714      0.00006311416176
  C   2.72574518503765     -0.29798903912400      0.00338376274574
  C   2.68589456020246      1.19037873225736     -0.00071699474982
  C   4.03882194990622      1.58404849712170      0.00466737825726
  C   4.74909325452519      0.39722890331156      0.01134529247413
  N   3.97020823878111     -0.74569057250205      0.01062461945742
  H   5.82463668387427      0.29376255422328      0.01678644930196
  H   4.43666355656409      2.58516635532095      0.00384192091557
  C   1.46945550583315      1.79860968952006     -0.00798982780477
  C   0.28240520104602      1.01289307932014     -0.01069730449507
  C   -0.89688390580294      1.72771244594069     -0.02394939988686
  C   -2.26098981642787      1.37645243079146     -0.02543305251281
  N   -3.14814649570405      2.40623384013780     -0.07513345846447
  H   -4.13089927589514      2.23578372735488      0.04914617492374
  H   -2.83434015197508      3.34313534287258      0.09401836677432
  H   -0.74226513736345      2.80213077554215     -0.03883287129368
  H   1.37468241060241      2.87789641414967     -0.01239630722751
  H   -2.63078742989064     -2.02836511479276      0.00144154295041
