24
Coordinates from ORCA-job ./opt_b97-3c_parallel
  N   -5.42647848260786     -0.04489180232422     -0.00288940273218
  C   -4.26690782200495     -0.03734305259591     -0.00199449051441
  C   -2.84243125901926     -0.02105610825185     -0.00114683109578
  C   -2.24959231589876      1.24979356010665     -0.00184671149118
  C   -0.90766174908107      1.58159672694786     -0.00156706085751
  C   -0.66012447552967      2.98844355068394     -0.00260679447766
  N   -0.58860935132905      4.14578834777727     -0.00302197770500
  C   0.26299286098127      0.76359729203528     -0.00048389930963
  N   1.39309170654019      1.47054647305505     -0.00098412556793
  C   2.53387512655993      0.78940268974722      0.00030505986251
  C   2.54738386417133     -0.70344856597085      0.00243678167309
  N   3.80505023953749     -1.18132298055014      0.00368682328945
  C   4.56927166696576     -0.06840826474039      0.00239627350503
  C   3.85938202413491      1.16268458082608      0.00032385699405
  H   4.27406685172520      2.15602661397601     -0.00093451272028
  H   5.64615969099387     -0.16731701818726      0.00298799122566
  N   1.44013785885497     -1.40460786339324      0.00289900688286
  C   0.27811810450415     -0.71466577602732      0.00140684603731
  C   -0.85299821935388     -1.55807502574540      0.00147759359249
  C   -0.58071286336752     -2.95981015347334      0.00306898290417
  N   -0.50704915393917     -4.11710485092314      0.00437568710133
  C   -2.21976498180394     -1.25888383836145      0.00027570280336
  H   -2.87586548044909     -2.11674376442862      0.00059366161002
  H   -2.93499792858043      2.08432453081677     -0.00282196071603
