22
Coordinates from ORCA-job ./opt_b97-3c_parallel
  N   -0.54794801539866     -3.40603223712419      1.26865861307337
  C   -0.64273552301667     -2.29527900232701      0.94967204877823
  C   -0.73301680553444     -0.93501908741223      0.57869561890846
  C   -1.90998536015385     -0.31261091787861      0.27656894450652
  N   -3.17750996559445     -0.82171809777769      0.26312454169800
  C   -3.90405993082809      0.15555406046506     -0.27450486698256
  C   -3.17262725526787      1.34170729466934     -0.62211630691316
  C   -1.87746155261947      1.08415346733888     -0.25715839935115
  N   -0.78515135300534      1.86968904008337     -0.24866661571151
  C   0.34947482671899      1.31203041657997      0.10820767669744
  N   1.35786402177001      2.11771713909138      0.48480374561062
  C   2.61254734082061      1.78924232288519      0.66974486078602
  N   3.33812828037030      0.75892765417719      0.23100214441836
  C   2.77475092229474     -0.34866757960555     -0.22458670056283
  N   3.50940262227295     -1.15532241061378     -1.00139045820702
  H   3.19777096591246     -2.09469374280940     -1.17048255205291
  H   4.46703947848477     -0.91205609684589     -1.18052186298688
  N   1.55983069468284     -0.86607534837616      0.11508853185221
  C   0.47576469458476     -0.18329378928671      0.29222161662780
  H   3.19567325733433      2.53441228878127      1.20140992691191
  H   -3.56773392400218      2.24763825456313     -1.04856101244502
  H   -4.96881910952515      0.01798143812257     -0.41168406265630
