30
Coordinates from ORCA-job ./opt_b97-3c_parallel
  N   -5.69387675693240     -0.51109408346648      0.17058711208843
  C   -4.55253186593091     -0.29981567622185      0.10318378360580
  C   -3.15282221664380     -0.11307340172716      0.02608192082226
  C   -2.72521256175172      1.22442449434974     -0.09613596451260
  C   -1.47088643005781      1.76822378317635     -0.10747306716887
  C   -1.47901110599871      3.18584953143665     -0.22809090875582
  N   -1.50546578044557      4.34252128860152     -0.32567190554296
  C   -0.17084071637970      1.13684225005807     -0.00791706522652
  C   0.93053201330657      1.96642178364553      0.08539738122824
  C   2.23804174203662      1.48028717041729      0.09964397669663
  C   2.44547161041992      0.04944686239894     -0.01718298035236
  C   1.39718056933968     -0.79489537129939     -0.10988146794708
  C   0.03562526337379     -0.31554387830543     -0.07022501803808
  C   -0.93259055940633     -1.32419261307522     -0.06823037313031
  C   -0.46158387338569     -2.66328060074142     -0.17432789247740
  N   -0.19607201593070     -3.79137084760503     -0.25505099099585
  C   -2.37991900596045     -1.28006585810998      0.06433105773458
  N   -3.01241953562147     -2.46011682721132      0.21211534998416
  H   -2.51761191120324     -3.33350368647212      0.18326157434071
  H   -4.01614233641490     -2.49544315759212      0.25685846719284
  H   1.58036605298403     -1.85643973714098     -0.18155090780752
  C   3.88282180885790     -0.18289917471353      0.00053062897755
  C   4.49728276548296     -1.43491791968474     -0.08894642514256
  N   4.97427192621711     -2.49346927766966     -0.16472920586766
  C   4.47991255853195      1.05568015615987      0.12150110280140
  C   3.48091878014641      2.07868683040265      0.18350394244897
  H   3.67991354417105      3.13417762929981      0.27734679476556
  H   5.54416536978781      1.22416835367441      0.16226098994756
  H   0.77711825723677      3.03439639376724      0.13283454680193
  H   -3.53557105732916      1.93501364924835     -0.17123086327109
