22
Coordinates from ORCA-job ./opt_b97-3c_parallel
  N   -3.10416660432911     -3.54738415488853      0.54085312110620
  C   -2.72303372592666     -2.46191635708068      0.38079363518430
  C   -2.25131146219427     -1.15650522043927      0.18755961576991
  C   -0.88079177866784     -0.74719672593833      0.17321143452505
  C   -0.85495426024015      0.72619733413124     -0.06521684776533
  C   -2.17384811053868      1.13856061424334     -0.22778176690393
  C   -2.63563992687842      2.43930221286341     -0.46656135763495
  N   -3.03573044180384      3.51168503887928     -0.66578473164957
  C   -3.00573564717488     -0.01935325619398     -0.06924137733473
  H   -4.08135582020197      0.00121123257846     -0.14010218922831
  N   0.26777810826922      1.42949515078520      0.01466826697240
  C   1.38496252795504      0.73128163738640      0.19319294948735
  N   2.47556225630046      1.43726052205579      0.53025059363280
  C   3.72600738580352      1.08589883789389      0.49846035768358
  N   4.33566398249350      0.10851419409281     -0.21179677608621
  C   3.75912587601693     -1.01325378670978     -0.53533166888997
  C   2.47860694785522     -1.50010285435473     -0.17133339903962
  C   1.37181856349239     -0.75769051835841      0.16425282032259
  N   0.20217848877664     -1.45937764685451      0.27608182516851
  H   2.30143060070182     -2.56104795931780     -0.29941347132939
  H   4.36479063079128     -1.68454959326142     -1.13755846179098
  H   4.41189562069905      1.74828725618731      1.01479969700065
