27
Coordinates from ORCA-job ./opt_b97-3c_parallel
  N   5.23626772172436      0.70860952879074     -0.00362407410541
  C   4.07892206825577      0.60480966251364     -0.00277182442525
  C   2.67628769912796      0.40632716670058     -0.00177065573281
  C   1.90650113111839      1.57375367319927     -0.00316838160904
  C   0.54393476086608      1.76060623964083     -0.00268475379618
  C   0.14221876552184      3.12819246388887     -0.00442379070102
  N   -0.06328180678561      4.27015250619296     -0.00565787395015
  C   -0.52876209293456      0.80935269710822     -0.00073916901179
  N   -1.72042685087260      1.37640535112067     -0.00085757614097
  C   -2.81443785354514      0.60149667485359      0.00066889383987
  C   -2.73979107532340     -0.86262484063041      0.00239638617495
  N   -3.99499889626680     -1.42928807165710      0.00367776557260
  C   -4.81183538310519     -0.38272711520301      0.00282211605404
  C   -4.15427619300404      0.89972750129699      0.00095706286529
  H   -4.61867122737233      1.87117415365174      0.00001322063019
  H   -5.88333697962860     -0.53298763173844      0.00353616613647
  C   -1.52548618035458     -1.46257665478740      0.00256144259984
  C   -0.33899974459599     -0.66486746218901      0.00108419488801
  C   0.87393288506033     -1.36853399950306      0.00168719105181
  C   0.76883830740330     -2.78884999127811      0.00383711839195
  N   0.79196114406369     -3.94981435743977      0.00551765928110
  C   2.25070341773396     -0.93757230438372      0.00053952290305
  N   3.19879857839654     -1.89522839804231      0.00166829313977
  H   4.17313313572634     -1.64917939812931      0.00095627035559
  H   2.96515381148440     -2.87180106911355      0.00329862844413
  H   -1.46343869316942     -2.54035710201115      0.00385042945371
  H   2.48795369667319      2.48433728786323     -0.00486591791681
