27
Coordinates from ORCA-job ./opt_b97-3c_parallel
  N   -4.14235269027807     -3.21720300381264      0.76193436868333
  C   -3.59305794829622     -2.21721102148938      0.54163413609005
  C   -2.88490866757417     -1.03784692683048      0.27509023321161
  C   -3.39173667885945      0.21860221495454      0.03854433130631
  C   -2.31435567146361      1.14238942959748     -0.21455571696173
  C   -2.52564536754101      2.49930666941911     -0.49833674861889
  N   -2.76912300574042      3.61140957999537     -0.73027445749500
  C   -1.11381398443822      0.44403231426042     -0.11703365851743
  C   -1.44562532095694     -0.94336678365667      0.18018502278025
  C   -0.48922912609956     -1.90094798856092      0.21068594922724
  C   0.87592116923061     -1.56232691704413     -0.05341827238005
  N   1.62201413606654     -2.59845243129178     -0.36320336569389
  C   2.91250113778467     -2.65138229957713     -0.70000379423959
  C   3.91224835771296     -1.75392618700632     -0.40501949461908
  C   3.75872684707609     -0.48419053420248      0.15262285501556
  C   2.59221908052867      0.24617307668505      0.29981408193397
  C   2.78063521608644      1.47935755227579      0.98557409231744
  N   3.00113237858465      2.42290223051544      1.62424843452963
  C   1.25330807390958     -0.12899261919069     -0.06471804046269
  C   0.24376902933945      0.82585093911492     -0.20665402376415
  C   0.56095796597556      2.17626053728495     -0.49429422271409
  N   0.80662081126538      3.26448378265144     -0.81200293252353
  H   4.66204248458400      0.01006801429410      0.48233382378210
  H   4.92736768047305     -2.09101454433402     -0.57289897903397
  H   3.20114545966400     -3.58968541632815     -1.16003101462660
  H   -0.72832027163096     -2.95074424280664      0.30215185245881
  H   -4.43410887790182      0.49067545628338      0.03543660251520
