32
Coordinates from ORCA-job ./opt_b97-3c_parallel
  N   -3.86631566535958     -3.16222631915091      0.76917820214405
  C   -3.15113370276268     -2.27196211501589      0.54564859243355
  C   -2.23882818246611     -1.23684040737470      0.23845763539378
  C   -2.72268756100554      0.05105873278035      0.31407693907269
  C   -2.13791511738734      1.24561370017546     -0.08375401860149
  C   -3.00295621041806      2.35976890690623     -0.17259035313973
  N   -3.66984515893275      3.30933137027304     -0.26369011261970
  C   -0.76818605958730      1.47507544443499     -0.41526164698645
  N   -0.50805208671653      2.64948437873142     -1.01431933201362
  H   0.44861821777326      2.95867179557569     -1.10488095246586
  H   -1.23412133770709      3.34109455546590     -1.10376618139797
  C   0.32927794488216      0.59107400403635     -0.11873157988712
  C   1.60589085038568      1.16504951385238      0.11884154584655
  N   1.76472683007461      2.54368962519733      0.34201069026637
  H   1.08828020531542      2.93267772444681      0.98256486629102
  H   2.69342049621099      2.75711588091188      0.66707264905147
  C   2.76327278149070      0.38942840769601      0.11047142410447
  C   2.66546051956164     -1.04310939730850     -0.10601509629789
  C   3.96421355133341     -1.58105569579035     -0.00943327103724
  C   4.83440716106029     -0.52163269680603      0.24381762752495
  C   4.11278428903065      0.68586028111512      0.33862848135458
  H   4.55640673709436      1.65146017737591      0.52967719033124
  H   5.90480092166679     -0.60753050272496      0.35836876928969
  H   4.23148359166537     -2.62085690894216     -0.11253031057015
  C   1.42759118650667     -1.61990366804454     -0.25671545194420
  C   0.23738717097729     -0.87299785993813     -0.24088600094852
  C   -0.95987292969140     -1.64285913933166     -0.28172169313537
  N   -0.92337474459153     -2.90303618565642     -0.75739858013957
  H   -1.72066448905821     -3.50848726066853     -0.67003963388733
  H   -0.12198786562140     -3.25962583946970     -1.23818812345990
  H   1.38610189081296     -2.69924087783709     -0.25540492652805
  H   -3.75246426014420      0.13269000458586      0.63487148105990
