32
Coordinates from ORCA-job ./opt_b97-3c_parallel
  N   -6.15644889280162     -0.67502583074137      0.00487632743168
  C   -4.99885058860152     -0.57118904877408      0.00384454595598
  C   -3.59977524082377     -0.35733910920616      0.00213097663614
  C   -2.79539699776230     -1.49357207744137      0.00179543575453
  C   -1.41628650595106     -1.64576375238354      0.00026863211543
  C   -1.02863577600537     -3.01736067198860      0.00057369202114
  N   -0.75220691649068     -4.14456317138120      0.00091318519031
  C   -0.36328328203302     -0.68100472190528     -0.00150142798798
  C   0.94484188797589     -1.15577643024614     -0.00275168429130
  C   2.03486681932897     -0.30637867505254     -0.00459713994561
  C   1.83992555750377      1.14942942698885     -0.00533141848758
  C   3.08215656551848      1.77228968947478     -0.00727318051219
  C   4.05482031226591      0.75693796598806     -0.00777952273767
  N   5.38015020404473      0.90347042557685     -0.00949658301049
  H   5.80663388607370      1.81133424255444     -0.01069270546245
  H   5.98497326573082      0.10025338420940     -0.00974108509129
  C   3.40715579178046     -0.54164789611058     -0.00610970530953
  C   4.09927915464445     -1.75023240727611     -0.00615652136065
  N   4.74376336933731     -2.72112917261879     -0.00626923584685
  H   3.26985145097711      2.83296028199016     -0.00821272040905
  C   0.53927680340845      1.64501152652552     -0.00404629077032
  C   0.37669950142713      3.04781510485840     -0.00474858717528
  N   0.27414215340730      4.20576964806053     -0.00516689517580
  C   -0.60196553878931      0.77760847629657     -0.00209315922659
  C   -1.83130134803522      1.41371431946867     -0.00088665284477
  C   -3.17064357338523      0.98998297405074      0.00097983763892
  N   -4.10763272075570      1.96733337009362      0.00176427707286
  H   -5.08884045589234      1.75368902266010      0.00260819367751
  H   -3.84249706432187      2.93376254905063      0.00045075139910
  H   -1.74962939367541      2.49375282199861     -0.00154326727734
  H   1.12015001777024     -2.22161955648162     -0.00229662679708
  H   -3.34680333257030     -2.42294615853855      0.00292001302618
