26
Coordinates from ORCA-job ./opt_b97-3c_parallel
  N   -5.58786162633726     -0.34195452123482     -0.44255569179266
  C   -4.43637553018751     -0.22681135795352     -0.32935099945436
  C   -3.03444854232179     -0.16426745252762     -0.16387389878090
  C   -2.35692015793466     -1.39507180808965      0.10836963151362
  N   -1.06472908946223     -1.63674573940549     -0.02693280196303
  C   -0.00365037287198     -0.86420776804493     -0.13446942356321
  N   1.12628359518889     -1.54161796528646     -0.43679261347681
  C   2.25699349283351     -0.88503099541766     -0.30293485190483
  N   3.48695167809037     -1.37370491396351     -0.50974157112079
  C   4.30462384420331     -0.36109049857079     -0.12903245929582
  N   5.62153196878804     -0.51746281711099     -0.20175515923794
  H   5.98984952945150     -1.38750963506421     -0.54647188765526
  H   6.25811629907238      0.20648125102308      0.07493910110340
  C   3.62844430905161      0.82898734996241      0.33016625810875
  C   2.30410643366423      0.52257915465444      0.20094246377883
  N   1.18844092930018      1.24237825851067      0.35772736316439
  C   0.04509249997501      0.61167871677870      0.12732918982007
  C   -1.10238064664695      1.44129554294130      0.00339352889484
  C   -0.86477174263389      2.84440463994540      0.04568616995247
  N   -0.75985851703540      3.99973293738195      0.06752708191619
  C   -2.43141441226518      1.08304903062126     -0.19645574316413
  H   -3.10563113774544      1.91160509523826     -0.36189247822621
  H   4.07755125573874      1.75019247443677      0.66129243938176
  N   -3.08864432688135     -2.46525381470154      0.47439153551640
  H   -4.09100902122708     -2.43020080313210      0.52457617566964
  H   -2.62922451100700     -3.35799402469163      0.49665422391568
