31
Coordinates from ORCA-job ./opt_b97-3c_parallel
  N   -6.05408951909948     -1.14593961975750      0.42813827561945
  C   -4.93926175836327     -0.83665607529380      0.32157394698078
  C   -3.56906722422471     -0.53297697444356      0.14470380067618
  C   -2.72103029693239     -1.58629361068660     -0.34549741474687
  N   -1.41384449272809     -1.62035023328512     -0.23040175846630
  C   -0.47804643290631     -0.71500564293394     -0.01605935065237
  C   0.81782119136890     -1.24522491263610      0.21425678732839
  C   0.95376395778875     -2.64302817175328      0.37057720781508
  N   1.08212255922376     -3.78865352091372      0.50310756342658
  C   1.93093280365906     -0.41217029717620      0.15180507290010
  C   1.76158122419287      0.99884065718848     -0.23890106570666
  N   2.92723935110075      1.62568379927525     -0.39325141469534
  C   3.86540220973461      0.68974148457706     -0.09760611997035
  N   5.15448741149162      0.97745508289942     -0.13388326946912
  H   5.44701540035635      1.90590408377616     -0.38701922495014
  H   5.84944261226314      0.28513432204858      0.08854153362124
  C   3.30460396609085     -0.59836588820330      0.24423654757930
  C   4.07648007877312     -1.71439235241866      0.56878873104445
  N   4.81974985433004     -2.57111537594265      0.82893920568064
  C   0.48412508053007      1.55335673110273     -0.37732214364961
  C   0.39103121869994      2.88859944593922     -0.83263337877138
  N   0.36252484754972      3.95166155033162     -1.29650918560549
  C   -0.65017897802888      0.75875366501716     -0.09250965430729
  C   -1.88001273276426      1.34631668212507      0.26781793159968
  C   -1.90152276897926      2.71521616031603      0.65797723790443
  N   -2.01294796836121      3.79175102555165      1.07686292607832
  C   -3.14220851527644      0.74273601901039      0.42780871271387
  H   -3.90802721596015      1.40833134165391      0.79969821184049
  N   -3.28758171561957     -2.67502457586141     -0.89260542621839
  H   -2.69993279784359     -3.46997461060006     -1.07483190613792
  H   -4.28451658595891     -2.79184094161255     -0.93009922636344
