26
Coordinates from ORCA-job ./opt_b97-3c_parallel
  N   -0.27853917604255     -4.04930150289464      1.30209189328033
  C   -0.44954312617302     -2.95587268260923      0.95643637774827
  C   -0.64469572062877     -1.61488006287734      0.55533545964200
  C   -1.88165652648252     -1.10123536826741      0.30226394798709
  C   -2.03609415953685      0.25942489722838     -0.23070454175208
  C   -3.37570783741595      0.40474017896245     -0.45533721267979
  C   -3.96650739867900     -0.85025789108021     -0.04253499808898
  N   -3.09869548024907     -1.74095890217316      0.40059331694406
  H   -5.02189076788475     -1.08484956876733     -0.07529379335633
  H   -3.89170332029423      1.26760331449035     -0.84205081040794
  C   -0.91194782387752      1.11828650451778     -0.33950634476295
  C   -1.14011973828115      2.43638916156545     -0.79729200988658
  N   -1.40736905987414      3.46991010533844     -1.25319081715192
  C   0.35265994095724      0.64530544973743     -0.01261365348332
  C   1.43705752685969      1.50993756384563      0.35712470707388
  C   1.13982758147044      2.82307764656145      0.80036918965586
  N   0.95894458817823      3.88801816709885      1.22732520388764
  C   2.78701261819400      1.17371965298177      0.46911321054172
  N   3.43677543833330      0.08748580052061      0.08406084082785
  C   2.83351566270839     -1.02422788508791     -0.31236074903380
  N   1.61726087143048     -1.48943922545934      0.06538040539745
  C   0.52581447604413     -0.80666570300038      0.21754203469214
  N   3.54245910133784     -1.88063583231696     -1.05915339708440
  H   3.20546205189989     -2.81806489041534     -1.18676782078382
  H   4.50524785783119     -1.67093131781258     -1.25368165482333
  H   3.42422977098214      1.94048111550498      0.89360484331984
