24
Coordinates from ORCA-job ./opt_b97-3c_parallel
  N   0.98145751564608      3.58130258497303      1.00187365718319
  C   0.79122746244010      2.47782910518933      0.69802731636140
  C   0.58341630431995      1.12442034259939      0.35338531410794
  C   1.63437130799082      0.22602033970254      0.22707702433411
  N   2.94408976523872      0.36806295956026      0.38666790577038
  C   3.41296100333538     -0.83252953895358     -0.07941834797175
  N   4.71366148549837     -1.08583611061598     -0.09805022350497
  H   5.04739524353119     -1.96282912832890     -0.45385422635928
  H   5.36053218614672     -0.39196787256820      0.23038393280165
  N   2.51088054266953     -1.75572968304505     -0.52407692232649
  C   1.35110296024770     -1.13239616629722     -0.33188717972606
  N   0.14052563807264     -1.63027103852475     -0.52422448956967
  C   -0.88613015082105     -0.81836293658902     -0.24996504604665
  N   -2.04458611379897     -1.41619898050983     -0.04594683489863
  C   -3.26825163648662     -0.92284865339425      0.07262162028902
  N   -4.17715035174701     -1.78835326054239      0.57622009210269
  H   -3.85367171310497     -2.68962358569800      0.87963182315752
  H   -5.08633549383554     -1.48089918589904      0.86423967374213
  C   -3.71922777644553      0.33465880916841     -0.39454683473141
  C   -2.89919907094869      1.41041884713636     -0.61266413109586
  N   -1.61550694987391      1.58230205050671     -0.30448321557757
  C   -0.70184067690048      0.67126088412931     -0.04957907640537
  H   -3.36596970592135      2.30310356050004     -1.01764167337059
  H   -4.78043678395668      0.46498232370170     -0.56859875636666
