33
Coordinates from ORCA-job ./opt_b97-3c_parallel
  N   -6.06226168095578     -0.88095269955598      0.43250823589376
  C   -4.92430337846697     -0.74261158388466      0.24307383036116
  C   -3.54055830192624     -0.51416567173059      0.05470375341932
  C   -2.83195383261584     -1.52802850720923     -0.60400184355626
  C   -1.47643588569122     -1.72215761381490     -0.69441977118963
  C   -1.08773681529271     -2.85174264801008     -1.46125619537043
  N   -0.81692128059873     -3.74033304644201     -2.15781726906003
  C   -0.42484810440858     -0.87634600446425     -0.17665155747449
  C   -0.58545574389999      0.56933915804862     -0.19539668521329
  C   -1.74121442532746      1.24951084769162      0.17577170399201
  C   -1.65310987940214      2.64110373305405      0.45160357790847
  N   -1.73086910421212      3.73727396832661      0.82730639255505
  C   -3.05086097561126      0.72100027754137      0.52173257863033
  N   -3.87252802857737      1.50965561098046      1.22828783291376
  H   -3.61824660633736      2.45198349969871      1.47072257761036
  H   -4.82141272729146      1.22635667537778      1.40619995487504
  C   0.62070912612718      1.35576416838744     -0.46418921651010
  C   0.52338338349961      2.63170846559714     -1.06566866120979
  N   0.45865329250945      3.61579173003219     -1.67763110780287
  C   1.83951261088288      0.81003392919428     -0.17655017236396
  C   1.94801745721036     -0.57315440961513      0.26165215883848
  C   3.28467559251026     -0.81009937506026      0.55847906600474
  C   3.88731031878380     -1.98652698766645      1.02070217162088
  N   4.44496143596269     -2.92587116277504      1.41748666163135
  C   4.02383126794034      0.40319797272231      0.29257651112226
  C   3.17573745792095      1.37979888394321     -0.16715288701003
  C   3.53769812662545      2.69810424506037     -0.47948162569631
  N   3.86463943397312      3.78474632631830     -0.72619722451059
  H   5.08490939576476      0.51175816970846      0.44269081917748
  C   0.81850839004469     -1.41209936861230      0.15687329095204
  C   0.95257054940512     -2.79593798677262      0.42100603777554
  N   1.05875055110794     -3.91297023980567      0.71512300984248
  H   -3.44540098799392     -2.29901347787915     -1.04775124528531
