25
Coordinates from ORCA-job ./opt_b97-3c_parallel
  N   2.92753634183372      3.95826874209612      0.26091890110450
  C   2.59974685977735      2.84681270562070      0.18542526640016
  C   2.21959892967102      1.50020678972693      0.09591689205174
  C   3.07884869620799      0.39516336057748      0.03871675355821
  C   2.34447753384280     -0.81196699403777     -0.05933215939538
  C   2.91542372280479     -2.09049845633257     -0.13709583338779
  N   3.41609182081488     -3.13696026053572     -0.20152149592347
  C   0.98202847321567     -0.47161013647002     -0.05615038011579
  C   0.89425486593209      1.00232009798813      0.03069265338357
  N   -0.22286445357075      1.68871793733394     -0.00255339154277
  C   -1.39186252108616      1.02549603567268     -0.07005007891291
  N   -2.42735849637047      1.85093544419763     -0.22723730601517
  C   -3.72105751598491      1.62372795309759     -0.24260394924817
  C   -4.44479503591775      0.45843545425999      0.03194764177970
  C   -3.93679089482576     -0.80745073049649      0.21954795219540
  C   -2.60520110864832     -1.20348998648652      0.14285038818876
  C   -1.44151054160186     -0.46296954852986     -0.02574724878241
  C   -0.20545862067386     -1.17760227513549     -0.07272336185480
  C   -0.20964606842051     -2.59480832050774     -0.09861156656733
  N   -0.25427204948863     -3.75376379484831     -0.11920866786281
  H   -2.45381311894815     -2.27166859274159      0.23808627391397
  H   -4.64991165233744     -1.59866752178691      0.40944894032577
  H   -5.52121548964924      0.57342218768140      0.07700082907691
  H   -4.31304468582256      2.50865737558191     -0.45613659494753
  H   4.15504869934605      0.44949447567451      0.06332710027761
