26
Coordinates from ORCA-job ./opt_b97-3c_parallel
  N   -1.34008440201943     -3.37491923744178      0.94043046369141
  C   -1.23989219890956     -2.25009213131313      0.67392791505975
  C   -1.10234677776570     -0.87836013172959      0.36229577512987
  C   -2.19595079123057     -0.06305081702213      0.18390871240857
  N   -3.50994201204372     -0.38562636542713      0.29709955644029
  C   -4.15059186508958      0.75100412283989     -0.01323560324838
  C   -3.30428056786396      1.84591695215643     -0.33573934086195
  C   -2.01708492535844      1.35629247823434     -0.22103747069772
  C   -0.74329104423046      1.90092778370870     -0.32481939800041
  C   0.38814157974713      1.12751240043146     -0.11074508842522
  N   1.55043521474270      1.77777673070465      0.01877881131484
  C   2.77844247279932      1.30651241657894      0.12528058458165
  N   3.72657307603331      2.26915833027162      0.37719921723868
  H   3.35275627181051      3.15730583392075      0.66455653019777
  H   4.57677837457406      1.99252148430080      0.83419219356291
  C   3.25062452206050     -0.00178667597387     -0.10196422128667
  C   2.46736057492027     -1.12668471965650     -0.26617557224080
  N   1.14668979130378     -1.26081839562373     -0.00098816852682
  C   0.21998960139582     -0.35765100321901      0.09553620006773
  N   3.01869452292019     -2.30014734536284     -0.67886524968035
  H   4.01492331447771     -2.40099236386699     -0.73608511448274
  H   2.47845367269030     -3.13094125165386     -0.51138263394715
  H   4.32477733925014     -0.12847187480946     -0.17788616823610
  H   -0.59591684633153      2.95793730013645     -0.49743534065646
  H   -3.61192908834039      2.84225236639039     -0.60611227859968
  H   -5.23264011174244      0.77447833252553     -0.00198184160296
