29
Coordinates from ORCA-job ./opt_b97-3c_parallel
  N   3.33408206188876      3.98546847907382      0.75952562266641
  C   3.09451951606381      2.86991944756539      0.53404217130925
  C   2.74674903960443      1.54145171277181      0.26568676317155
  C   3.57327840452141      0.48571674783926     -0.02070381468881
  C   2.79340598174191     -0.70987650419264     -0.25417347462318
  C   3.36922187964781     -1.94324254136277     -0.58332635130566
  N   3.90693408223053     -2.93589485228276     -0.86190716217965
  C   1.44716665825317     -0.38721723599878     -0.10452736821758
  C   1.38330702297924      1.03765431699717      0.22295458697021
  C   0.20618720642308      1.67663595322403      0.38464815380588
  C   -1.02767483530287      0.96892563081890      0.17365067667728
  N   -2.06933962659992      1.73558171112671      0.03417394877240
  C   -3.35424077814865      1.38789552630821     -0.24516213103801
  N   -4.07510372700478      2.44598102452448     -0.69720600971006
  H   -3.57684760297321      3.29700354233054     -0.88445836187813
  H   -4.95697698487925      2.30886253522876     -1.15360950635568
  C   -3.97383790966983      0.17993784642364      0.00099808461579
  C   -3.32027877215522     -1.02655164470977      0.33775416284627
  N   -2.03525156417279     -1.31812904597043      0.24211458162640
  C   -0.98898445339468     -0.51798448414334      0.05480718165133
  C   0.25726728984311     -1.13678204910763     -0.15386322564091
  C   0.27835440542191     -2.54011818438012     -0.32503399542565
  N   0.28625308539201     -3.69167284780780     -0.46768854426642
  N   -4.08812511383065     -2.06099156328656      0.76847574097598
  H   -3.65279566329357     -2.96663386870510      0.79460076309841
  H   -5.08819261065993     -2.02527757329593      0.70997460825119
  H   -5.05601437409075      0.16042540933066     -0.05766939133194
  H   0.14653180528236      2.74061221672509      0.56428972997599
  H   4.64908575888260      0.52167715705517     -0.07312073705270
