30
Coordinates from ORCA-job ./opt_b97-3c_parallel
  N   6.06139037445502      0.51309931672403     -0.00499677416117
  C   4.90862327746185      0.36486377069694     -0.00344203055222
  C   3.51826541978939      0.09564984680607     -0.00161754513357
  C   2.67659099191953      1.20242695028202     -0.00147278359227
  C   1.29130275947457      1.30602257473398     -0.00009250988032
  C   0.81641318472385      2.65098958155936     -0.00052275434573
  N   0.55055199800954      3.78014358127542     -0.00106983265445
  C   0.28988002330907      0.29747412613212      0.00161824404987
  N   -0.95294422937197      0.76903898552016      0.00257765842825
  C   -1.97052777369695     -0.08548410290279      0.00415388678888
  C   -1.80697030727880     -1.55590791457768      0.00491271630119
  C   -3.07466629980107     -2.14282154311295      0.00655605979548
  C   -4.01269427971516     -1.10296751688864      0.00685392859245
  N   -5.34479190403322     -1.20004828848142      0.00838668726033
  H   -5.80596092023100     -2.09030342789639      0.00883814061395
  H   -5.91644981113705     -0.37292032367617      0.00795508449937
  C   -3.33202759839119      0.18450768958806      0.00536959449300
  C   -4.01271807457599      1.40053936250064      0.00521325791211
  N   -4.68270465282849      2.35316909790590      0.00520662778976
  H   -3.30133534799724     -3.19660903533435      0.00748096620285
  C   -0.52209601412286     -2.03699090000969      0.00392177493931
  C   0.58033171147629     -1.15596843582615      0.00225251187920
  C   1.83429586261708     -1.75447776217696      0.00142601240684
  C   3.14919197450304     -1.27484841807714     -0.00020872939896
  N   4.14015587481387     -2.20325993196451     -0.00010573563256
  H   3.92784922747420     -3.18164960607906     -0.00119942725663
  H   5.10798347298089     -1.93704075088237     -0.00287557880880
  H   1.78212279558355     -2.83877510718269      0.00229893316734
  H   -0.33350760316847     -3.10313016213364      0.00441607669747
  H   3.19283696715770      2.15173826417790     -0.00272322660102
