30
Coordinates from ORCA-job ./opt_b97-3c_parallel
  N   -1.98018172791773     -3.88400656667898     -0.54347697356402
  C   -1.67693416281395     -2.77689115169659     -0.36176991294540
  C   -1.54539255268064     -1.38874229006390     -0.08704432124400
  C   -2.75367481226576     -0.74744948442075      0.39158802743036
  C   -2.96894999644782      0.60837062124165      0.44025086255278
  C   -2.15362588854889      1.67540608702556      0.00641749636885
  N   -2.79372737444523      2.87258807391561     -0.12838907658538
  H   -3.77988877278026      2.87072033669336     -0.31247942270016
  H   -2.28628922857971      3.65145757697311     -0.51379515918166
  C   -0.77093995615819      1.61938247631552     -0.22424768532419
  C   -0.22087690924890      2.78548041384014     -0.79370924459296
  N   0.11879552622322      3.76539054183084     -1.32363978175388
  C   0.12685046722475      0.51986961834631      0.03646172044917
  C   -0.26573988063011     -0.86340352894111     -0.18435627287246
  N   0.66172970339177     -1.85592233347140     -0.45967339838142
  C   1.91437817169327     -1.58622132387490     -0.28436786357869
  C   2.41638127192764     -0.28348634958406      0.19217238888513
  C   3.76438619977651     -0.40225720202623      0.35120177350378
  C   4.14334644267114     -1.75819380787724     -0.04503350760795
  C   3.05255423713842     -2.47090665081180     -0.42942958364665
  H   3.00162656040795     -3.49512654617623     -0.75578903787159
  H   5.15862860370780     -2.12449456997561     -0.02473965699779
  H   4.44551808562895      0.36281808730569      0.68737533209993
  C   1.47386135652670      0.76182360470440      0.31529590341981
  C   1.94099976413231      2.02123600846628      0.75526914938450
  N   2.39166068321652      2.99704850927741      1.19458022286156
  H   -3.95166799784829      0.90756490044456      0.78639878760556
  N   -3.74223085349686     -1.57856845723412      0.82212525843648
  H   -4.66281316954975     -1.20647131356146      0.96343146611936
  H   -3.69270544865485     -2.56087600828657      0.61467769203093
