30
Coordinates from ORCA-job ./opt_b97-3c_parallel
  N   5.17039562856583      2.69376561886049      0.49609445438279
  C   4.35780912034990      1.87782117015455      0.34234285103779
  C   3.37053352764592      0.87529752804234      0.15937136684952
  C   3.81651468888428     -0.45359405506822      0.09729778611607
  C   3.09482765656745     -1.58652790644384     -0.13409388946521
  C   1.69647269037127     -1.79476530387986     -0.25757296465867
  N   1.37578755877887     -3.03220565013863     -0.67927137873721
  H   0.40833950023562     -3.32531086972034     -0.71652454934070
  H   2.09556472783576     -3.71061757082150     -0.84554055895352
  C   0.63616038872862     -0.85598568648948      0.00017816000109
  C   -0.68313646958674     -1.31348006315686      0.20329435418401
  N   -0.96498705244584     -2.66445908955599      0.47870776569185
  H   -1.94238386243008     -2.80872232873717      0.67334581258807
  H   -0.41631802533521     -3.03865112249329      1.23954323950382
  C   -1.77334598872776     -0.44166783415102      0.08770084285264
  C   -1.55139103838716      0.96790997686452     -0.21069749831668
  C   -2.80508612754347      1.60033696311464     -0.27827462657454
  C   -3.77228703533500      0.61794873963045     -0.03110318596221
  C   -5.16381829975841      0.82808055882194     -0.01059418714408
  N   -6.31385825730545      0.99223453758739      0.00783577865213
  C   -3.14463563682789     -0.63705032251042      0.21001973816707
  H   -3.68503925685943     -1.54526819309381      0.42289604594462
  H   -2.99702433500751      2.64214245701908     -0.47102956534055
  C   -0.26608876119979      1.44632671958151     -0.26536124126507
  C   0.85178995646318      0.60044484543166     -0.11780556285307
  C   2.05844832333195      1.29764772017936     -0.02186894738145
  H   1.94597186615343      2.37265138696957     -0.07237293400742
  H   -0.09281310157131      2.50883807779638     -0.37125071579201
  H   3.68714521605232     -2.48609740414995     -0.25252468218013
  H   4.88620775205739     -0.59149631524375      0.19055452170135
