30
Coordinates from ORCA-job ./opt_b97-3c_parallel
  N   6.25943400087021      0.72421742638475      0.19754766473292
  C   5.10624958410342      0.58638716506887      0.13835107148176
  C   3.71607802785679      0.34391482097928      0.05907320735967
  C   3.30099355243784     -1.02162926140578     -0.09958736493515
  N   2.07767872069408     -1.50865785136261     -0.05525820941787
  C   0.86405740177269     -0.95692227131469      0.01266107428185
  C   -0.17616403198587     -1.88812770600073      0.08918747082072
  C   -1.50397509199213     -1.51299893597220      0.08443068611943
  C   -2.68050818463746     -2.25703312300403      0.12879261277581
  C   -3.75057514094082     -1.35184517113543      0.06423642591583
  N   -5.05524119196587     -1.62659034324842      0.07639788230892
  H   -5.39273992489089     -2.56891932988317      0.13713296846399
  H   -5.73281515096824     -0.88462871292399      0.02447144778205
  C   -3.24307293165764      0.00750530475910     -0.02416799743722
  C   -4.10284101045322      1.10225094895359     -0.10300362513900
  N   -4.93173530584618      1.91877038255898     -0.16423630298818
  C   -1.85542583488635     -0.08129497469723     -0.01021016081156
  C   -0.83745272123887      0.87397351406709     -0.05714320198227
  C   -1.17838401853859      2.24568413065769     -0.11887043474109
  N   -1.43636306782656      3.37677784256536     -0.17013154887055
  C   0.52900736047079      0.49465585569725     -0.01578401411285
  C   1.48702928819625      1.50008690579885      0.05602874104935
  C   2.86997406608526      1.43800017000951      0.11821108710804
  H   3.36611397395543      2.39374520428054      0.22079776158195
  H   1.09366318516556      2.50727732247603      0.08427196500599
  H   -2.76031426228755     -3.32934405868763      0.19630350703425
  H   0.10466035704315     -2.93073791631588      0.11752374971811
  N   4.26601796438954     -1.95324925904112     -0.30577602184780
  H   5.24070311127810     -1.73318015181476     -0.20938241322083
  H   3.98514588079720     -2.91559935604919     -0.26202272113628
