32
Coordinates from ORCA-job ./opt_b97-3c_parallel
  N   5.92836135503584      0.33709994206282     -0.08816214134472
  C   4.76460519347571      0.36951195664987     -0.06901499797993
  C   3.36477486164093      0.33871190894622     -0.03742825183327
  C   2.47890062718784      1.44668573674383     -0.11431612151042
  C   1.18098237123731      0.95891114682483     -0.00771706268442
  C   1.25003694961607     -0.48466807604088      0.09209488225223
  C   2.61257932420898     -0.84840105632829      0.08664264487885
  N   3.11209878578367     -2.15979444874742      0.13859173280129
  H   2.92934427093322     -2.60674879804777      1.02827362739696
  H   4.10953339135524     -2.18366040353552     -0.02544189228009
  C   0.10577140253864     -1.27463780073816     -0.01550389377195
  N   0.26095369471026     -2.63588851613737     -0.12575476834102
  H   1.20091976295390     -2.91782254203621     -0.37542835285944
  H   -0.44390404694034     -3.13529620765102     -0.63716759215590
  C   -1.17837510108904     -0.63578296073319      0.00226371721794
  C   -2.28726471115556     -1.46739594309919      0.04142318363325
  N   -3.60871719470649     -1.30346053279388     -0.04640640133100
  C   -4.25777798213196     -0.14711159522190      0.01728858263341
  N   -5.59159899348082     -0.25959132713053     -0.16703390868334
  H   -5.95857880031746     -1.16559524710035     -0.39783791094010
  H   -6.17889728131600      0.54557730818359     -0.27088745965886
  C   -3.75243036592961      1.14654637354590      0.30925202996434
  C   -2.44143239798061      1.53942677627842      0.26976435097436
  C   -1.24368771115372      0.84455906746024      0.04066181986541
  C   -0.06656871243447      1.60515218817598     -0.04811213044321
  N   -0.10228280929950      2.99184357737919     -0.10342634446784
  H   0.80120669033153      3.41381527022469     -0.22912789743756
  H   -0.77107200118499      3.38295297863416     -0.74475020959548
  H   -2.30417606634181      2.59192100644514      0.48681996169892
  H   -4.48586766876409      1.91126648998514      0.53335117602947
  H   -2.05851065856080     -2.52017070766105      0.16202656573967
  H   2.80347718507831      2.46949575896291     -0.21496754126756
