34
Coordinates from ORCA-job ./opt_b97-3c_parallel
  N   4.62744718720623      2.39465405505845      1.08869284732103
  C   3.82247110173144      1.62889539924647      0.73356217890640
  C   2.89902262141064      0.66005685331967      0.29841829630597
  C   3.39986398053440     -0.63296965322885      0.06617054392402
  C   2.65041406670812     -1.73941360442919     -0.38225269075721
  C   1.28555607032142     -1.95586278964948     -0.38489383018783
  N   0.88996203459109     -3.23425779420330     -0.70336578250662
  H   1.60144593994742     -3.85955108745141     -1.03846236200736
  H   0.00723639758801     -3.33199560268431     -1.17318163829989
  C   0.21968955031227     -1.03518288026744     -0.07039015826846
  C   -1.03888545332816     -1.54137388351389      0.21109145361103
  C   -2.14585171145227     -0.70493426501279      0.30384284450017
  C   -2.00908494541827      0.69736274218061     -0.02684939028264
  C   -3.33617140883926      1.21049243876227     -0.00815106562572
  N   -4.22601544832521      0.25813366207243      0.27490503321698
  C   -3.52165751732484     -0.90372174639570      0.45769758542006
  N   -4.20211258524697     -2.07784455135529      0.68851454224759
  H   -3.72507240952599     -2.73879861083834      1.27880981443670
  H   -5.15277741749710     -1.92285582331172      0.98421794844988
  N   -3.71079596797896      2.52450252725609     -0.25706051739489
  H   -3.22773925473440      3.19558214430284      0.32402321166465
  H   -4.70914648488817      2.63711624464521     -0.15010917969368
  C   -0.78907910200568      1.23609344928757     -0.35499438472595
  N   -0.67930811197861      2.54090040073370     -0.77040627833012
  H   0.10731003748812      2.74178291974286     -1.36453307941379
  H   -1.53793345384749      2.93968656798775     -1.12040428536737
  C   0.40777229432266      0.42273609583180     -0.17157048971579
  C   1.57951354410328      1.10498975209796      0.02835913294298
  H   1.48808951694734      2.18135599417649      0.08652933350093
  H   -1.16551265619761     -2.60487585842333      0.36228387171267
  H   3.25339878577769     -2.57512572700834     -0.72030710408240
  N   4.74011808774330     -0.83470819636962      0.18350180757250
  H   5.31187753426898     -0.10807752010406      0.57987694831077
  H   5.08289540858503     -1.77173966535334      0.28453331441351
