29
Coordinates from ORCA-job ./opt_b97-3c_parallel
  N   2.66492429049329      3.41151998238540     -0.17013154845916
  C   2.33378366549898      2.29862944714933     -0.09698955463181
  C   2.01942971047376      0.92118430751389     -0.02135725231735
  C   3.15880536439894      0.09146155551322      0.01752366437223
  C   3.18603724958985     -1.31468989702546      0.05389629035911
  C   2.16001785370344     -2.22844706380578     -0.00759284990570
  N   2.47090119745276     -3.56630504265724     -0.04532602938255
  H   3.39353343550534     -3.84718245969218      0.23484438428125
  H   1.75075538462332     -4.22059985449323      0.20311630405480
  C   0.77430882617314     -1.93903853038265     -0.07730584989886
  C   0.07121803379487     -0.76297463051609     -0.04735924682726
  N   -1.28632489248173     -1.00697262451967     -0.08438092792397
  C   -2.09550230149589      0.00688214551812     -0.03192626977988
  C   -1.65578458526501      1.41582546554279      0.06172198108696
  C   -2.79199899117461      2.20265904910891      0.10848636141431
  C   -3.92052499296872      1.34421408026694      0.04512567756410
  C   -3.53338877062263      0.00764167481349     -0.04010755309405
  C   -4.35884104065267     -1.11787768124675     -0.11318336332020
  N   -5.04108839247232     -2.05865875690249     -0.17224091041911
  H   -4.94806547945100      1.67401420426793      0.05991166686159
  H   -2.83009334279935      3.27756045059902      0.17887362003490
  C   -0.29145044843323      1.65477417767375      0.08099421295165
  C   0.61958827822060      0.60506264750994      0.02006067435076
  H   0.06795268574392      2.67253504845094      0.13786943852666
  H   0.12071018346577     -2.79969565136981     -0.14560108672569
  H   4.18109553148769     -1.73970200666437      0.12891637428647
  N   4.39644463525650      0.68435539044181      0.08263787433170
  H   4.46559470195631      1.67083534223600     -0.10209465173762
  H   5.18279832687858      0.14858351208422     -0.23648035205329
