28
Coordinates from ORCA-job ./opt_b97-3c_parallel
  N   -2.73914705530000     -3.73988614620523     -0.16481158181995
  C   -2.57825074462186     -2.58957695745316     -0.14698321249355
  C   -2.41086553723225     -1.17812122031349     -0.12251281589126
  C   -3.60733880578676     -0.47274522380218     -0.32978123410032
  C   -3.85175658076028      0.87007673610896     -0.26369656285818
  C   -2.90918210530416      1.87059334068479      0.05832925407277
  N   -1.59047646280488      1.78885728652326      0.04701171419995
  C   -0.74948466173824      0.77104522558404     -0.04020974075966
  N   0.52827609191504      1.16642048552532     -0.16517424002055
  C   1.48824514912717      0.26631739723800     -0.07036127576537
  C   1.25427022554705     -1.17072766495182      0.22359285555497
  C   2.48098756415907     -1.80395986289410      0.32921369375332
  C   3.47731344360428     -0.82629321141889      0.09201462207848
  N   4.79614493115411     -1.01927444003043      0.08957520054739
  H   5.42301982426586     -0.25408088885149     -0.09269503825803
  H   5.19448171669953     -1.92174628318782      0.27023755161550
  C   2.87078833279986      0.45637804099356     -0.15863443871308
  C   3.60432895580589      1.61478472220522     -0.40504976169874
  N   4.30458833372529      2.52485907829730     -0.60225126792264
  H   2.66204171772808     -2.84750123136475      0.53028146424014
  C   -0.05859675693818     -1.59655935665563      0.26904349522496
  C   -1.09683706795747     -0.68806520239644      0.07024397846790
  H   -0.28518732857022     -2.64570253761905      0.39779334445690
  N   -3.38219842320789      3.12224397161252      0.31773374293057
  H   -2.70349777612166      3.80447715218976      0.60761944104612
  H   -4.33046242675078      3.25506157893439      0.61601746370021
  H   -4.86968594929346      1.19347113043692     -0.44287056860767
  H   -4.46528314584306     -1.09472575788958     -0.54787874638025
