34
Coordinates from ORCA-job ./opt_b97-3c_parallel
  N   6.11491636593212      0.65891831252047     -0.32641165498550
  C   4.95473683732680      0.65061705798763     -0.23044807901409
  C   3.55959605185093      0.57216413213519     -0.11273347014124
  C   2.64784460322387      1.64602241037886     -0.06491776835479
  C   1.36986556676263      1.09272285160151      0.07759568371042
  C   1.49312707962201     -0.34846449006962      0.09082957161947
  C   2.85245475119726     -0.66058656216720     -0.02593803266994
  N   3.40698170892383     -1.96872724183028     -0.06850267455206
  H   4.27164039734013     -1.97078115693115     -0.59460743057002
  H   3.63642212065479     -2.30354550536487      0.86084351764273
  C   0.34882765824825     -1.16293061242007      0.09925304128438
  N   0.57049562746618     -2.53537086839360      0.01441003949126
  H   -0.09216737382759     -3.04060404575946     -0.55213650514548
  H   1.53355345375576     -2.73852669998396     -0.24443154829541
  C   -0.94333269276636     -0.58538216669889      0.19040629563879
  C   -2.10423011283708     -1.42800523173869      0.35238763473382
  N   -1.93011566498710     -2.69347690328948      0.84180439044397
  H   -2.74406006715462     -3.17481799471466      1.17663704405373
  H   -1.05569905033000     -2.92914957465347      1.28131462467366
  C   -3.41188787282481     -1.13265744482367     -0.01791075426094
  C   -3.93007471866025      0.08172031919647     -0.47761349848885
  N   -3.46672548719780      1.30011913499760     -0.25300468115276
  C   -2.28385061306022      1.61043444031609      0.25059565586862
  N   -2.24862630879474      2.86047597061121      0.77997602072891
  H   -1.52987218053165      3.11577571740988      1.42868492678096
  H   -3.12059784361227      3.35673155336218      0.81918287275429
  C   -1.04334760570972      0.87776111960663      0.18733697521581
  C   0.10675722812413      1.65871469835198      0.13071102009769
  H   0.01502234189713      2.73154814660959      0.03792155540293
  N   -5.15260485239715      0.05439420157492     -1.09426214497512
  H   -5.40418807174031     -0.77067096057089     -1.60742670954846
  H   -5.45124008254487      0.92726496997781     -1.49364946814719
  H   -4.11822758448076     -1.95278872763836      0.03155247899147
  H   2.90198711633142      2.69116271161045     -0.12441592763102
