33
Coordinates from ORCA-job ./opt_b97-3c_parallel
  N   6.83826120198310      0.28962554127921     -0.29338698588912
  C   5.68012502392396      0.26578318663373     -0.20293024478741
  C   4.27759390914628      0.23149340174625     -0.09369319869291
  C   3.48914144161615     -0.94433308588233     -0.19186181516041
  C   2.16017444799584     -0.56362868029360     -0.00667903682865
  C   2.13313607550819      0.87296148272808      0.18852684407847
  C   3.45099405460197      1.34726765594482      0.12143433662304
  H   3.78250116106835      2.36724534699451      0.21976083367010
  C   0.92110757258133      1.51830754695091      0.30894577550996
  C   -0.29914937907962      0.83153357912493      0.28062184689805
  C   -1.46045171128891      1.66480621196720      0.30360405482809
  N   -1.36662985932588      2.90680944419885      0.80819186785812
  H   -0.56048450952007      3.20539384067934      1.32081739578083
  H   -2.12503189841339      3.56020053431538      0.71269470046421
  C   -2.73588889237887      1.33649368916812     -0.26926788601658
  C   -3.58478077673627      2.42437223215214     -0.57838048492700
  N   -4.24474219408461      3.35622385998420     -0.79980043980271
  C   -3.27899379835372      0.07534436760708     -0.39523296677641
  C   -2.77727074764045     -1.15369433326705      0.01024050412464
  C   -3.70171429489572     -2.22291573109283      0.04617356017880
  N   -4.41735022515566     -3.13874070887091      0.09885074772544
  C   -1.44341986158275     -1.45520679035644      0.41602853608271
  N   -1.27506586186000     -2.63468703883919      1.03179146134966
  H   -2.04309716723449     -3.28115336094338      1.10999017323510
  H   -0.34435396693900     -2.98700065403864      1.19653897294570
  C   -0.28403127863649     -0.63372968429399      0.16561364046107
  C   0.96043692217771     -1.28097615974887     -0.03759970738198
  N   1.05288791257463     -2.66231820131117     -0.24550547713886
  H   0.35763770608223     -3.03715234334419     -0.87341321240748
  H   1.97102961538157     -2.93508427024102     -0.55504026114040
  H   -4.29621372155345      0.05292812644051     -0.76203876404323
  H   0.93371858155734      2.59794879504569      0.29497305209334
  H   3.89602451308015     -1.92920348483687     -0.35425793961467
