30
Coordinates from ORCA-job ./opt_b97-3c_parallel
  N   -0.63328294252010     -4.41640167155040      0.07355880091812
  C   -0.90061367125737     -3.28640348478575      0.04248905194161
  C   -1.29504814023760     -1.91841240974172      0.00571166359175
  C   -2.68687306348192     -1.77568818510410     -0.02905517495081
  C   -3.47031698217737     -0.65338059050857     -0.05685909368940
  C   -3.09992174884348      0.69517307646478     -0.03632117933242
  N   -4.13515628536216      1.59771278922366     -0.10484183827691
  H   -5.04112585917276      1.27130740309631      0.17806249930007
  H   -3.95401963149083      2.56165808177418      0.11720260928715
  C   -1.76905043927872      1.18649801051270      0.00066322738623
  C   -1.72774732409972      2.60392569567476      0.08149886600950
  N   -1.80286676311826      3.76149896605799      0.16279487268581
  C   -0.49988570510297      0.53440914724517     -0.03265636166967
  C   0.61844854725639      1.36670533029295     -0.07076594468471
  C   1.91896559355471      0.88839360776726     -0.06223431954029
  C   2.14578533204504     -0.57207378522461     -0.01270354682134
  C   3.51116307497236     -0.79517128261004     -0.01100247262968
  C   4.13520485749177      0.48350315656267     -0.05807364218770
  N   5.46331186921452      0.68885161974643     -0.08860015217021
  H   5.84024258286397      1.61582437089478     -0.02213088815184
  H   6.10272544798364     -0.07332050103186      0.03806812355710
  C   3.15220695129697      1.51321386466346     -0.09224693284445
  H   3.34839535694259      2.57259329682361     -0.13320099591213
  H   4.01895854911382     -1.74579440098749      0.01668121779651
  C   1.04766866962932     -1.41367016634910      0.01547264820868
  C   -0.26523154475593     -0.94480636195674     -0.00372729449146
  H   1.21498529370312     -2.48039621430054      0.04325147091791
  H   0.47415570792067      2.43631730525111     -0.10492992299785
  H   -4.53714277471721     -0.83755069620674     -0.10063803064198
  H   -3.23157417997178     -2.71003822429418     -0.03412262760726
