28
Coordinates from ORCA-job ./opt_b97-3c_parallel
  N   2.58362349647624      3.79164071429393      0.00225654023270
  C   2.45344126605815      2.63780610531506      0.01501156080990
  C   2.35717934391256      1.21845864352087      0.03114775948096
  C   3.61679634734589      0.58996154922574      0.13554880180183
  C   3.93808976771606     -0.73186642618539      0.13279617718911
  C   3.04438591273100     -1.82430792978319     -0.00533749965166
  N   1.72966379291578     -1.81984038074626     -0.01165671077845
  C   0.82724943545849     -0.83188052242767      0.02677928825645
  C   -0.49217339233090     -1.28639612096570      0.08401729303185
  C   -1.55811216792428     -0.41031030727878      0.04634703419235
  C   -1.31877007387017      1.03331597874251     -0.07297224160815
  N   -2.46972178982058      1.73556867002640     -0.12118256869318
  C   -3.44418192828146      0.80828627951274     -0.03798155142544
  N   -4.73083550271092      1.14642882712714     -0.05480535498022
  H   -4.98448260700828      2.11538040495860     -0.12763582152758
  H   -5.45279662242507      0.45169684666954      0.00903986082578
  C   -2.94627123969137     -0.54616365166505      0.06602357813206
  C   -3.73681883463026     -1.68804573908899      0.15956317658283
  N   -4.44733025517986     -2.60902145751253      0.23405534454810
  C   -0.02876660040174      1.51391608129648     -0.11348523157459
  C   1.07056181955414      0.64948250548032     -0.03565848711124
  H   0.12564595088765      2.58055689421196     -0.17988052135278
  H   -0.64273906100564     -2.35466726630287      0.12944869320008
  N   3.60644569851377     -3.07189254990701     -0.07037298853856
  H   2.97749664367282     -3.81753525851507     -0.31323747863129
  H   4.55405320296547     -3.16988278353568     -0.38619023688850
  H   4.98881077957499     -0.97425256312135      0.23615487740646
  H   4.45033648699752      1.27343723815418      0.22689067467124
