33
Coordinates from ORCA-job ./opt_b97-3c_parallel
  N   -5.68006135383640     -0.68433382312284     -0.24414087502175
  C   -4.51959616460994     -0.59734725499679     -0.20685894461841
  C   -3.12960130035166     -0.43169077834482     -0.15425446408201
  C   -2.13701382070175     -1.44127208292325     -0.35136856504563
  C   -0.89307218187197     -0.83833528220085     -0.24118879067732
  C   -1.10431395286039      0.56467573076699      0.04578947108844
  C   -2.49827494745642      0.79985007044950      0.08302911573729
  N   -3.10062965021344      2.05499737181292      0.31139464055246
  H   -4.07727910149494      1.94905653077258      0.55327483682223
  H   -3.05967746129215      2.64581131306944     -0.51124808603505
  C   -0.03267478989078      1.41870342197294      0.24113608286429
  N   -0.24617001548002      2.73747037105594      0.54238098300569
  H   0.45213027666718      3.18243847646910      1.11221471549257
  H   -1.19777803368469      2.94639597807799      0.82064006748985
  C   1.30210322477680      0.91980218574264      0.00010272502192
  C   2.23498683574824      1.87090316008987     -0.37952496735123
  C   3.58792654602657      1.75245297350422     -0.69434069001859
  C   4.40048352950547      0.68001155677824     -0.40370521862209
  C   4.05858515435193     -0.53359839353025      0.17489857075701
  C   2.79682930280330     -1.08531408829739      0.39801905935685
  N   2.76808305179848     -2.24070416875996      1.10410095118311
  H   1.93018928367072     -2.80897259111541      1.05900291392112
  H   3.63446972937832     -2.71007871004313      1.29838666556287
  C   1.50721620453475     -0.54137697061805     -0.01772256407617
  C   0.41506608655924     -1.37332464782865     -0.21630877515860
  N   0.55149768381404     -2.77958471011794     -0.31063919734985
  H   1.18558153629455     -3.05779527108820     -1.04610831573447
  H   -0.33891560957614     -3.22591025867335     -0.46079959117076
  H   4.89157391231686     -1.15626852304647      0.48310049515839
  H   5.45865090841007      0.81483823972010     -0.59999713937525
  H   4.06146039916126      2.62898910960318     -1.11665694317213
  H   1.83429290097417      2.86820669101342     -0.51416386430797
  H   -2.36872272217152     -2.47806328849181     -0.53522489479724
