29
Coordinates from ORCA-job ./opt_b97-3c_parallel
  N   -6.34039688710228     -1.02822092590219      0.16968132843738
  C   -5.20371447486462     -0.78922946220871      0.13850608465329
  C   -3.82692813302992     -0.50352226007448      0.09907981044146
  C   -2.78742297895593     -1.44654655566380      0.32710870705228
  C   -1.57999811641824     -0.77447023419828      0.19443317266414
  C   -1.87301448953524      0.61396529235527     -0.11814544516028
  C   -3.27142657092910      0.75272932445368     -0.18554607698649
  H   -3.84668733970468      1.64245789876612     -0.38361440619220
  C   -0.83515371110128      1.52312148565494     -0.27904835855375
  N   -1.09222196082582      2.82606256063610     -0.57296095940480
  H   -2.04237836007267      3.07333444241573     -0.78046416802206
  H   -0.40682553411312      3.35663023707056     -1.07799244630687
  C   0.52637706717041      1.09215058380711     -0.01724451044624
  C   1.41001870127579      2.07846002064636      0.37448200305877
  N   2.69420134634300      2.06597870823764      0.76818822124933
  C   3.51769646117336      1.06641408159799      0.57588970032350
  C   3.33593622677014     -0.20694299771343      0.00291721533904
  C   4.51787841678777     -0.93546637588754     -0.26250902358406
  N   5.45987939111619     -1.57507612672703     -0.50198278297195
  C   2.10849512333814     -0.88308866108868     -0.22514009124092
  N   2.19019062103674     -2.14693368465862     -0.66982318618481
  H   3.08505851757653     -2.57440467439459     -0.84117690545761
  H   1.37691923028076     -2.61938833744186     -1.01539060960484
  C   0.79569812950819     -0.35459655931980      0.02483090266566
  C   -0.25868835420780     -1.22808315835839      0.18676367208686
  H   -0.08038240179672     -2.28571035090121      0.32789867960638
  H   4.54077371600244      1.27478194887463      0.87802529162481
  H   0.98326745005832      3.07041196094619      0.46813127444081
  H   -2.93172978507978     -2.49334217152453      0.53713703867315
