26
Coordinates from ORCA-job ./opt_b97-3c_parallel
  N   -0.47741986941371     -4.42214423028831      0.00026398014238
  C   -0.72020540674901     -3.28741678227784      0.00083381389343
  C   -1.18221113870523     -1.93967811181757      0.00103795755481
  C   -2.57803341724550     -1.81793326253748      0.00053954771145
  C   -3.38448427973182     -0.71607627454518      0.00110051486183
  C   -3.03974546320522      0.64740348271354      0.00214298932949
  N   -4.06450625558961      1.52803997814107      0.00427360141006
  H   -3.90325848823658      2.52026929952907      0.00234904835006
  H   -5.01301985527802      1.20617418177567      0.00193758022106
  C   -1.71456287371412      1.15709364696282      0.00117982497444
  C   -1.64657315313635      2.57826633738679      0.00062954915574
  N   -1.82222568328608      3.72707479867112      0.00058234764772
  C   -0.45180248657465      0.51607921922255     -0.00015726036718
  N   0.55837015064475      1.40663110760492     -0.00220499371596
  C   1.78347540993881      0.91575922744222     -0.00157440230639
  C   2.04504135364626     -0.54515160679175      0.00183675929272
  N   3.35728629674551     -0.75341408436647      0.00254385575944
  C   3.83452256395582      0.52949481990577     -0.00063734198296
  N   5.13843125494451      0.76505421401950     -0.00125877178555
  H   5.78419025836189     -0.00351676479953      0.00074728797254
  H   5.47461199753285      1.71088336510219     -0.00353286543534
  N   2.93923958168406      1.56785248772819     -0.00323548686099
  N   1.06745624986318     -1.43019521399345      0.00330123003660
  C   -0.18590943146701     -0.94077188319197      0.00203783472045
  H   -4.44794970863501     -0.92175098022670      0.00106688290053
  H   -3.10194706825092     -2.76409048376660     -0.00030308127923
