29
Coordinates from ORCA-job ./opt_b97-3c_parallel
  N   -5.94884766514360     -0.35380589429765     -0.01306208892498
  C   -4.78531035552344     -0.38244582923034      0.00912801551776
  C   -3.38440016314985     -0.34693962692886      0.02287882939155
  C   -2.50682418809498     -1.46265531667265      0.02835319436077
  C   -1.20745772693729     -0.96958061354108      0.00751552880705
  C   -1.27890537058826      0.50266212190074      0.00201371461308
  C   -2.64152400694391      0.86088793588029      0.00334399260677
  N   -3.17006176906592      2.13525270034802      0.06710070566991
  H   -2.64900353548067      2.83325712668655     -0.43825786643909
  H   -4.15223530215619      2.18547599736675     -0.15563916611661
  C   -0.11987394318224      1.24144624126405      0.00704566130437
  C   1.14743919923335      0.63436699952695     -0.00146384738073
  C   2.25049874639267      1.49246046664788      0.00760959069406
  C   3.61402883806644      1.28600765615944      0.00200328093866
  C   4.31667142432167      0.07076796735248     -0.02058609890949
  N   5.67294323295261      0.13962766785071     -0.06003612778622
  H   6.13418463421394      1.01364349901330      0.11244463368728
  H   6.22008577413333     -0.68751223977991      0.09087444797701
  C   3.74619047108355     -1.21812895488712     -0.03557081160107
  C   2.41814554331324     -1.57158619163268     -0.03237084714751
  C   1.22272491413914     -0.83683060074682     -0.01539411462889
  C   0.03439714717546     -1.57610741462603     -0.00682126978140
  H   0.09973790035479     -2.65769893236582     -0.00893876116507
  H   2.25919944117380     -2.64492838622700     -0.04162445745766
  H   4.45091091218148     -2.04104366832815     -0.05628710582335
  H   4.22402595754665      2.18159250455933      0.00760483771026
  H   1.97691003810464      2.54248981018676      0.02561053396930
  H   -0.16179367147432      2.32474159775115      0.03042939450774
  H   -2.81595486914609     -2.49426805533029      0.03289225110651
