28
Coordinates from ORCA-job ./opt_b97-3c_parallel
  N   -4.59196305461629     -2.13600956720198     -0.84769577350858
  C   -3.75209462727936     -1.37436997633130     -0.59117265096400
  C   -2.72446098694803     -0.45129194356901     -0.27231208060039
  C   -3.09445902382149      0.88107785513336     -0.10484774053423
  C   -2.30806477928179      1.96659932050312      0.19982839258904
  C   -0.90850311502116      2.08073577553454      0.22909315644017
  N   -0.44317228362521      3.32867710930274      0.47885279038926
  H   0.50252707425540      3.46303949638159      0.78289062683561
  H   -1.08995422575701      4.06577872153680      0.69079533563459
  C   0.07369807634682      1.05964021907146     -0.01719359258225
  C   1.36551751177701      1.44400536851799     -0.32481507009375
  C   2.40821345526237      0.51990517415067     -0.34619406785848
  C   2.17940098331629     -0.84358890831886      0.08729397517364
  C   3.45758049386638     -1.44687664239229      0.08632630879735
  N   4.39845396178649     -0.58140573146922     -0.31511573906134
  C   3.77841114977928      0.60557133744180     -0.57321693251387
  H   4.34816909127068      1.46572869213520     -0.89043342035480
  H   3.72358530651586     -2.46448789778214      0.33514787317608
  C   0.89815563282705     -1.27927985156247      0.37415008569711
  N   0.66590054750969     -2.57157313417053      0.75145940088614
  H   -0.09412614789691     -2.75427982676953      1.38156370803149
  H   1.47587061715609     -3.14016165183866      0.92064284058606
  C   -0.22183934371192     -0.37970163775625      0.15710989769319
  C   -1.44163850114363     -0.98619066220799     -0.04858897699801
  H   -1.41529868834110     -2.06615974900711     -0.09876164680551
  H   1.58633493505164      2.47399723584188     -0.57024062548556
  H   -2.84802128856909      2.88657542171800      0.38976453296354
  H   -4.15526278820620      1.08384694500786     -0.18524501203207
