33
Coordinates from ORCA-job ./opt_b97-3c_parallel
  N   -4.76845821149425     -2.10494710049298     -0.35243072302022
  C   -3.92634222610020     -1.31633768602982     -0.18919956184933
  C   -2.86979591548271     -0.40008530325873     -0.00462844039561
  C   -3.22217096287356      0.85045523777907      0.52280012826611
  C   -2.51105259134427      2.00916861796183      0.54977760154980
  C   -1.21169664922062      2.25786701058541      0.04926838927657
  N   -0.95854140234402      3.59214088143687     -0.16000617307554
  H   -1.76427973244265      4.18838718646626     -0.21396534409472
  H   -0.23712405896410      3.84067176126095     -0.81041111263902
  C   -0.16867738019251      1.30991100949739     -0.11658737135929
  C   1.13072889091685      1.84297101283563     -0.20561955316618
  C   2.25529961867435      1.05588531360772     -0.18395348794793
  C   2.11523770930008     -0.37962725872735     -0.04069368487651
  C   3.40365910587938     -0.91565836030777      0.06555667270002
  N   3.69556648855346     -2.30289612758546      0.22521647082471
  H   4.54365806381989     -2.43286740984454      0.76004263178999
  H   3.83890965813563     -2.75962728092460     -0.66838280881930
  C   4.32300468309430      0.16095186060680     -0.00948977760651
  C   3.63547765931628      1.36166397961769     -0.14597526784152
  H   4.06918806441203      2.34721063108525     -0.20912431407250
  H   5.39783756487568      0.05016495562423      0.03431533065494
  C   0.84255261441892     -0.95068314521529      0.04330823167942
  N   0.79046238483712     -2.33893815648420      0.22815715658563
  H   1.70826755823395     -2.70283167290453      0.47652178289722
  H   0.08960239710306     -2.63360249736006      0.89143528492917
  C   -0.32570692412471     -0.15786984602806     -0.07979893273498
  C   -1.57062181535456     -0.83269811715186     -0.37661734479497
  N   -1.51408378341701     -1.99535154024842     -1.05836924082796
  H   -2.34393462433329     -2.55813553314600     -1.14547901351375
  H   -0.62388247227293     -2.46542318261790     -1.14423228359078
  H   1.28061662703248      2.91095207902660     -0.14819235900968
  H   -3.04580746158165      2.88216998508564      0.90421926386418
  H   -4.24488356756080      0.92183024284999      0.87134276441876
