26
Coordinates from ORCA-job ./opt_b97-3c_parallel
  N   1.20839009438414      3.69554036163571      0.07568719857328
  C   1.16857294583599      2.53461529372791      0.02820879268356
  C   1.23889669004948      1.11897507072248     -0.01931350876873
  C   2.57572601830548      0.63791709560454     -0.05610415615722
  C   2.98980754766538     -0.69659941567032     -0.05382459157126
  C   2.25046671785027     -1.86370951465055     -0.03984023637132
  N   2.93077445145663     -3.05700092282719     -0.08380400890112
  H   3.90304428388714     -3.06122799501457      0.16669379918031
  H   2.43453128695678     -3.88819177528097      0.18250161895192
  C   0.84654161994556     -1.97122217695564     -0.04512176785206
  C   -0.17143900200430     -1.04181089694437     -0.03402800780023
  N   -1.39369593262312     -1.65270889192221     -0.03203775330582
  C   -2.45165183996277     -0.88272984721854     -0.01165640306390
  N   -3.75132644082615     -1.26424190325855     -0.00669903614677
  C   -4.38793849956799     -0.08396120117638      0.01457420499932
  N   -3.65054001439330      1.06785716967285      0.02381912217263
  C   -2.40013565201318      0.59318119139525      0.00799974815247
  C   -1.17388301573191      1.21561207325910      0.00201415793852
  C   -0.00946660220276      0.43669049057734     -0.02046970767858
  H   -1.11772108655432      2.29436329336622      0.01033344469166
  H   -5.46825789375539     -0.03608194205734      0.02438165913392
  H   0.45772455968474     -2.98194229021759     -0.05843550980099
  H   4.06554301683500     -0.83300143573684     -0.08431635603566
  N   3.58418213030700      1.56119695818050     -0.13409170061235
  H   3.38299171471863      2.52882524839068      0.05004025362572
  H   4.51386015465288      1.26790810129851      0.10095564006269
