30
Coordinates from ORCA-job ./opt_b97-3c_parallel
  N   -4.90315878564226     -2.22824572886417     -0.04382994573632
  C   -4.00844753070133     -1.47908134674079     -0.03119165550839
  C   -2.98470677037622     -0.51468887597214     -0.01490391655245
  C   -3.40494220898015      0.84471705801754      0.00744456821969
  C   -2.56250619079319      1.97599256124232      0.02767473005508
  C   -1.18786208098613      2.04418731355092      0.02859371474262
  C   -0.17708691141733      1.07820204740503      0.01273508120437
  C   1.14515682358066      1.54615621874003      0.01446823260677
  C   2.21710489611978      0.68471560296378      0.00420234757859
  C   1.97489361880511     -0.76069105750947      0.00004544591276
  C   3.27752026675676     -1.34191696102797      0.01028712265214
  N   3.59534341179575     -2.67015639079320     -0.04833704574384
  H   4.54738405535897     -2.87599029839834      0.20664211732116
  H   2.92752986267682     -3.30827195155025      0.34845306502001
  N   4.23204412269160     -0.40180801818307      0.00300160212514
  C   3.61567987558912      0.81261410527050     -0.00659549455419
  N   4.37039591043348      1.95466638797602      0.04796518495482
  H   5.32814961126044      1.81887527960520     -0.23201675888135
  H   3.95491415561588      2.77779895626057     -0.35335610084838
  C   0.70534950087342     -1.24723071409777     -0.00799841348090
  C   -0.42223200557411     -0.37949999782598     -0.00544950133530
  C   -1.65668431664311     -0.99352743968966     -0.01819356902890
  H   -1.60942672796542     -2.07612259165808     -0.03351918525033
  H   0.51822583498156     -2.31503649118372     -0.02511395178105
  H   1.30108406492419      2.61921527380767      0.03313246516962
  H   -0.81073116758964      3.06195214273342      0.04479871527030
  H   -3.07766276783593      2.92854103100060      0.04296224193533
  N   -4.72938029505037      1.08264760175078      0.00937961289175
  H   -5.39399847236297      0.32775594280049     -0.00316449702392
  H   -5.08137703674545      2.02081559656978      0.02658170546514
