28
Coordinates from ORCA-job ./opt_b97-3c_parallel
  N   1.29545654536629      3.65266524749984      0.00240757785685
  C   1.25713226940418      2.49063827827628      0.01764161150231
  C   1.47621914595888      1.08590229315572      0.02221713822733
  C   2.84946112856668      0.71166588757160      0.02538461766753
  C   3.36076501156579     -0.58394121060062     -0.00558986653448
  C   2.70440556260127     -1.80463179018848     -0.04487639443303
  N   3.49291073066343     -2.93867697494529     -0.13757671891600
  H   3.06987722047765     -3.80224403951121      0.15446981240426
  H   4.44616355012381     -2.85213017486239      0.16901330187036
  C   1.32077332557072     -2.02351939998218     -0.04903515325058
  C   0.23164719913221     -1.16828847657939     -0.01137325767626
  C   -1.04309820278655     -1.78129208483089     -0.01299828116273
  C   -2.16375266169138     -0.99968113461214      0.00975916048263
  C   -1.99246857360467      0.46817884330256      0.03422803336193
  N   -3.19117767839086      1.04355738433142      0.05245016593463
  C   -4.02788919790925     -0.04462785796464      0.03896624950479
  N   -5.34915055762062      0.13006462079152      0.05164205155997
  H   -5.95862551971940     -0.66580466489811      0.03420997220888
  H   -5.72671316727257      1.05870477417613      0.06299238665293
  N   -3.47774562434795     -1.28508847600864      0.01399611773668
  N   -0.81240474735305      1.07363911808538      0.03889552462004
  C   0.29076322329276      0.31434967863448      0.02006037157561
  H   -1.11406776962459     -2.86077452863783     -0.03598722172835
  H   1.04475982777002     -3.07224058458241     -0.08992397830337
  H   4.44388454345910     -0.64272370011265      0.00681808470408
  N   3.77295591850648      1.71717946150411      0.10820544381975
  H   3.47292058765129      2.66547134189071     -0.04297893111704
  H   4.71892888281034      1.51489541669714     -0.15603144166870
