37
Coordinates from ORCA-job ./opt_b97-3c_parallel
  N   6.50225136881000      0.25449200051766     -0.33674991992209
  C   5.35492794193686      0.08523922766213     -0.23834236369945
  C   3.96476155618682     -0.05413571606960     -0.12157132397415
  C   3.23798937404812     -1.25998878654418     -0.03120896467464
  C   1.88530150218427     -0.92087800168891      0.10413166991972
  C   1.77455740285344      0.51606355562445      0.06364616260360
  C   3.06640849366381      1.04348787303359     -0.07287945167232
  N   3.39345736012047      2.42162870617232     -0.15255208480725
  H   3.52744172544426      2.82531222063393      0.76780012034415
  H   4.26160890631551      2.55448591671555     -0.65525658144534
  C   0.52017474111479      1.14019823035076      0.06704860104314
  N   0.50315397312202      2.53561796478948     -0.05466157119990
  H   -0.21151361962760      2.87968022852175     -0.67837326860303
  H   1.41990716475782      2.88494950116839     -0.32637974323793
  C   -0.64903458915010      0.36579391117556      0.20188329482973
  C   -1.89794909486750      1.04241027946991      0.48598394161702
  N   -1.84391879025321      2.19058854647149      1.19059317681324
  H   -0.94771202473128      2.63300118914362      1.33120041839887
  H   -2.66207657190712      2.77153061283897      1.26462059561226
  C   -3.18286422785846      0.63492546724780      0.06381739220831
  C   -4.24708054601872      1.53622756605592      0.21179509103004
  N   -5.12656371160230      2.29538502857737      0.32110328082169
  C   -3.47707849084638     -0.61496039053942     -0.56468747834519
  N   -2.85794180141418     -1.74669167803928     -0.33895808748645
  C   -1.70153712914329     -1.93236881261997      0.29360208590562
  N   -1.65463193644667     -3.08033923605974      0.99645154716999
  H   -0.78119406763026     -3.40682466466212      1.37841941769796
  H   -2.41449264707963     -3.72854971342666      0.88702281270927
  C   -0.53331067447059     -1.09835475342541      0.22021362778564
  C   0.73216545123498     -1.70989130953780      0.16060951669331
  N   0.90098858229021     -3.10730718798203      0.14397045532632
  H   0.28344409936844     -3.58007364119661     -0.50031996801303
  H   1.85188422489227     -3.35061403332112     -0.08301929347604
  N   -4.54312735117803     -0.67678873868474     -1.39487668591110
  H   -4.91185228352091     -1.58610601806801     -1.60776217930485
  H   -5.16680254331764      0.10655967763536     -1.47208056797041
  H   3.68851035302129     -2.23910904153732     -0.04081007688784
