33
Coordinates from ORCA-job ./opt_b97-3c_parallel
  N   5.20827329839562      2.62976090856179      0.32030685893127
  C   4.35179713031953      1.84905817460726      0.19492033113824
  C   3.36459229356800      0.85472180262486      0.05737031046030
  C   3.79034794175868     -0.49425863250921      0.21374416693849
  N   3.12976781285408     -1.60741816419519     -0.10128325459553
  C   1.83792409866323     -1.78476677990290     -0.31464528245982
  N   1.55369468065571     -3.04843187007646     -0.73908213755703
  H   2.35287152143379     -3.62720399575844     -0.93079886886502
  H   0.73665752472453     -3.20573875602023     -1.29874944936730
  C   0.72146992580960     -0.90073820527135     -0.11089344902015
  C   -0.54517015283484     -1.45450107994092      0.05451938899363
  C   -1.68826595577168     -0.67433799331251      0.07660601776897
  C   -1.56500884737188      0.76637479880975     -0.16602062144544
  C   -2.87598778082853      1.31836046200074     -0.16541683855604
  N   -3.21024141036382      2.63715781710246     -0.28617225331774
  H   -2.58202939038719      3.21401678754762     -0.81781016190561
  H   -4.17946918824638      2.83497240766442     -0.47324550307636
  C   -3.77254366143661      0.26150800765407      0.09141110760057
  C   -5.15982355332558      0.38689408079153      0.18497861789503
  N   -6.31789747368228      0.48948752651766      0.26329252038273
  C   -3.04163142060498     -0.96297263442404      0.25417133632681
  N   -3.63010358084246     -2.18834774715213      0.44727944984078
  H   -3.07608336701126     -2.86310178690875      0.94688927088167
  H   -4.58047580906444     -2.16107153791255      0.78038068720002
  C   -0.32980249868868      1.33051922568706     -0.27871967593639
  C   0.85857465379244      0.55650506101835     -0.19797546663641
  C   2.04252537514365      1.26983171193384     -0.16416442064467
  H   1.93268250898444      2.34235449641614     -0.26322922956527
  H   -0.21898022291644      2.40357114446339     -0.38255464990045
  H   -0.63210873071513     -2.52420307151752      0.19728772826141
  N   5.04110213538891     -0.71847825957828      0.66289822651490
  H   5.68364582485657      0.03856437647280      0.81659013700603
  H   5.39324541824299     -1.65691659029345      0.62012826520812
