31
Coordinates from ORCA-job ./opt_b97-3c_parallel
  N   6.25304633273235      0.30680604455150      0.20078903187879
  C   5.09279487455349      0.24359801067994      0.15769286840643
  C   3.68946200684226      0.16888443456254      0.10456810812512
  C   2.80428646812198      1.25392415455635      0.32894367131047
  C   1.50826171608165      0.76826953310450      0.17747522337688
  C   1.59498749828099     -0.64701815341559     -0.13979696029941
  C   2.95462263904987     -0.99430515408747     -0.19315585870783
  H   3.39494197632079     -1.95815895453422     -0.39158269016681
  C   0.42875854984099     -1.39001363223369     -0.29786895197026
  N   0.50805321370973     -2.74932309196385     -0.53006406781105
  H   -0.15532041047394     -3.12633341253411     -1.18472166978386
  H   1.43832616956511     -3.08636358820186     -0.70592449711309
  C   -0.84809483710254     -0.76839812931759     -0.10801835998714
  C   -1.91376733774823     -1.62595585612117      0.17022011348486
  C   -3.25169866869272     -1.40894082700949      0.41127333988154
  C   -3.97159485711589     -0.22439360608482      0.22725300353980
  N   -5.33513263170067     -0.29406845959334      0.35535967131504
  H   -5.83913004756116      0.55622018792344      0.53275251243104
  H   -5.71978277274358     -1.10432603809247      0.80672095603097
  C   -3.44234042874448      1.00842357792807     -0.16865501765708
  C   -2.12480040743567      1.43830071776838     -0.24089979877918
  N   -1.96576686560826      2.76921518957638     -0.53167048943621
  H   -1.12211990487853      3.04462583470703     -1.00072982606620
  H   -2.78163551532222      3.28332339561333     -0.81114014058364
  C   -0.90687457192796      0.69544896392117     -0.01966328884142
  C   0.26602114277411      1.40287160653043      0.17865676519683
  H   0.23819796529643      2.46848890899003      0.35765617455700
  H   -4.18446536534713      1.76235391889055     -0.41021065554731
  H   -3.82649315679766     -2.27482114910978      0.71774971544596
  H   -1.62118150547924     -2.66024608960627      0.30156266651177
  H   3.10058360101021      2.26610568490227      0.54967124225818
