33
Coordinates from ORCA-job ./opt_b97-3c_parallel
  N   -5.12229657340425     -2.32971599392439     -0.79201461309927
  C   -4.27233905740261     -1.57508100808535     -0.53444867055125
  C   -3.30144881299179     -0.60893207431871     -0.20441524127192
  C   -3.78356257792787      0.69276774151304      0.13877893764756
  N   -3.09027506545540      1.79113877753702      0.46282167549491
  C   -1.78016515044592      1.95305781705055      0.34488118635844
  C   -0.69864744064313      1.12449540365325      0.05140502421801
  C   0.56650431457156      1.74776883982626     -0.11967674445852
  N   0.68813175896767      3.11125414728694     -0.22014842046273
  H   1.60896877753773      3.44984280170156     -0.43305357037350
  H   -0.02872142322238      3.60699560779502     -0.71766355036838
  C   1.72424205979125      0.95648708671963     -0.11868052168168
  C   1.63592059991681     -0.48033613551949      0.03840507294935
  C   2.94310403029472     -0.99361164505971      0.03918854803409
  N   3.29242087451551     -2.34769153116970      0.14146431059195
  H   4.28614617087892     -2.46808609216234      0.28393165782127
  H   3.02795900275503     -2.87885401602863     -0.67871818400395
  C   3.82801575686914      0.10717778788565     -0.08119442214582
  C   5.22272847952303     -0.02054508238804     -0.12635541568049
  N   6.37396625120369     -0.18649398106621     -0.16243667600730
  C   3.07565706961787      1.29958805474509     -0.17886024249696
  H   3.51270316257801      2.28102475526548     -0.26501398211491
  C   0.40612755824982     -1.12106656734052      0.19611275123967
  N   0.37428675343667     -2.47060491273538      0.42567615416434
  H   1.26463294661546     -2.86881099023219      0.69437109291979
  H   -0.39518167142899     -2.81912775817343      0.96960586450837
  C   -0.78866629856767     -0.35158792034185      0.06457424594288
  C   -1.97025414517289     -1.03618964410477     -0.11987474289191
  H   -1.86697478354002     -2.10244764974730     -0.27698189354983
  H   -1.50291204982961      2.97818176838177      0.57210446358357
  N   -5.11098782379540      0.88116982600236      0.16928673282504
  H   -5.76377155751556      0.14800427784362     -0.04589031882303
  H   -5.44549849435181      1.79372290430051      0.42187911449081
