29
Coordinates from ORCA-job ./opt_b97-3c_parallel
  N   -4.27815439557678     -3.32970787824148     -0.07957787048241
  C   -3.61142445641068     -2.37878171772215     -0.05717768939818
  C   -2.75884123393907     -1.24230829661395     -0.02995587379244
  C   -3.35871504694259     -0.02316921528174     -0.00412515704781
  C   -2.73686938193247      1.27299192811871      0.02667273713553
  C   -3.62457868898841      2.37826979178474      0.05015477972251
  N   -4.36011377147573      3.27848898131779      0.06904055181750
  C   -1.39153366053563      1.56160074964744      0.03419032144849
  C   -0.23311373034179      0.75114510842989      0.01592543149290
  C   0.98505775407692      1.42458782689659      0.02599540286411
  C   2.19710251603849      0.74931967210355      0.01376803659238
  C   2.18029863231675     -0.69974091077328     -0.00316613746684
  C   3.58853648484077     -1.07933966102370      0.00116330232488
  N   4.07179348599635     -2.33850011412583     -0.06135202663711
  H   3.48181935965203     -3.10023835019052      0.21875612120962
  H   5.05402337246858     -2.45440004008200      0.12085020873218
  N   4.37203030714463     -0.01614079649914      0.00843983166619
  C   3.54915015173758      1.09538876117555      0.01043191064488
  N   4.12464954100959      2.31982608089803      0.06723336520750
  H   3.58125812732022      3.11776026037702     -0.20810578342954
  H   5.10082178415382      2.35872534326136     -0.17046783362830
  C   1.02724385100768     -1.39848399566510     -0.01636263381126
  C   -0.24977433880564     -0.72903964441971     -0.01137070006508
  C   -1.34274717112832     -1.54569298348922     -0.03124444995154
  H   -1.13238867665000     -2.60672380690577     -0.05126075534891
  H   1.02217309281870     -2.48148436419771     -0.03953768683358
  H   0.96358170927508      2.50764900713458      0.05087427940895
  H   -1.17383769991599      2.62331252359162      0.05818693069191
  H   -4.44001470771413     -0.01456226820556     -0.00689692846649
