28
Coordinates from ORCA-job ./opt_b97-3c_parallel
  N   -6.14296851727427     -0.29437717905438     -0.00332742790398
  C   -4.98094579936425     -0.27091246809470     -0.00859845849384
  C   -3.57450374909677     -0.23610463046650     -0.01381302324194
  C   -2.73177290446856     -1.36057053646341     -0.05064621682924
  C   -1.41148065836839     -0.89007810155358     -0.04445031019917
  C   -1.45592972579010      0.56650587452231      0.00203453257673
  C   -2.79576001773272      0.94906483820132      0.02822865086464
  H   -3.21198754875103      1.94323119831431      0.05320100942213
  C   -0.26645126273595      1.30786397314358      0.04237293678145
  N   -0.33843663776864      2.68649920292679      0.08120303165475
  H   -1.26015024639608      3.04590536019146      0.25776036765596
  H   0.34854609208659      3.15388682687308      0.64658428158806
  C   0.98150133999983      0.63776028519027     -0.02740198639283
  C   2.13684111078572      1.40072673367136     -0.21609351121265
  C   3.47005752707059      1.06723828042215     -0.24211291169896
  C   4.04859081929883     -0.19597495290693     -0.00049799538172
  N   3.46043961624221     -1.39759692398032      0.12082902432423
  C   2.16373271188285     -1.62533812200653      0.06925010230804
  C   1.00553792250917     -0.83145808458061      0.00720591772143
  C   -0.19522451342075     -1.54461948298483     -0.01639380876233
  H   -0.16301682788579     -2.62664341611814      0.00054577298780
  H   1.94356920466292     -2.69008981906871      0.09877625794876
  N   5.39116917649259     -0.26162244748379      0.10396129457807
  H   5.81168053467584     -1.16532473197495      0.22553207530822
  H   5.97642073411443      0.54781409300785      0.02430178171706
  H   4.16238980272091      1.87879340730157     -0.43035417841289
  H   1.96203366578200      2.45136370015701     -0.41283393849978
  H   -3.05394304917118     -2.38806334958559     -0.07439392350799
