32
Coordinates from ORCA-job ./opt_b97-3c_parallel
  N   -3.94166412704782     -3.24606977938028      0.61756946169752
  C   -3.15479137978053     -2.41172859731576      0.41634027180110
  C   -2.24980966720489     -1.35468219785315      0.17671173074172
  C   -0.92857298249276     -1.72157080459960     -0.11623235760069
  C   0.23938122601587     -0.99163992968921     -0.21502488824129
  C   1.42231134187275     -1.77219022599729     -0.36050154934298
  C   2.66618731481570     -1.22983772257049     -0.23925201909733
  C   2.79311338787358      0.19176652555948      0.07935702795935
  C   4.16161236403072      0.45579869949240      0.25567917600338
  N   4.74258870475919      1.67871599289548      0.52380626083430
  H   5.68025654612969      1.63033959867853      0.88664561256903
  H   4.17789901052369      2.31292996347515      1.06458990278028
  C   4.86663845654723     -0.75640069379552      0.01759318651099
  C   3.97366146956752     -1.77466004089087     -0.27504010700809
  H   4.22679323191664     -2.80367995504264     -0.47456021657241
  H   5.94129175222600     -0.85742353096437      0.06798543208379
  C   1.66172839317001      0.98097097348830      0.12007685282684
  C   0.37800129372059      0.45889522591122     -0.07728190461515
  C   -0.70154086880842      1.38233643044217     -0.24761748696222
  N   -0.35174917712374      2.67023691141868     -0.51334692636354
  H   -1.07140677773474      3.35272545877905     -0.67940735721001
  H   0.51804203580007      2.84007192381063     -0.98096107934567
  C   -2.09777252912236      1.14744671711377     -0.13929705463164
  C   -2.92617283672092      2.26397510423367     -0.35945844670001
  N   -3.61382737885876      3.19051082053598     -0.53082300920817
  C   -2.79692242781136     -0.05267314231513      0.19945085134351
  N   -4.10664910447553      0.06733205886033      0.48921659458200
  H   -4.57079253311619      0.95636557681558      0.43443184431041
  H   -4.67913846863890     -0.75252636584428      0.59445266190963
  H   1.77023997542953      2.03418272386266      0.34409791506762
  H   1.30758904180154     -2.83744350236869     -0.51822975643152
  H   -0.79578480847584     -2.79195918203590     -0.20800846920121
