26
Coordinates from ORCA-job ./opt_b97-3c_parallel
  N   1.10371036026899      3.94574107788558     -0.12087810730289
  C   1.36250441470025      2.81445994985136     -0.11118720574072
  C   1.81063696972239      1.46470614423343     -0.12114018964863
  C   3.19195613194852      1.30971154471993     -0.33873060658831
  C   3.96333232171532      0.18741367908892     -0.26360321832639
  C   3.50691190930993     -1.10914335590813      0.08021901117705
  N   2.27579506054786     -1.57953341265791     -0.00811494530455
  C   1.10520936341654     -0.98424385209339     -0.14986686191385
  N   0.09419253278194     -1.84129937644378     -0.41055582210046
  C   -1.12638620099775     -1.36463499687324     -0.30815087830230
  N   -2.26228402587274     -2.05204913959183     -0.49685554263720
  C   -3.24084290960340     -1.18352859744845     -0.16174330798868
  N   -4.51774035131413     -1.53055960449961     -0.22120633093735
  H   -4.76298267324551     -2.45555617546302     -0.52846793246201
  H   -5.24472257643011     -0.88381156973632      0.03060983510936
  C   -2.76891670080771      0.12398778848831      0.25652952605474
  C   -3.59982608185144      1.17594868502052      0.63580495116330
  N   -4.37026384358605      1.99423292953287      0.94009912925746
  C   -1.38999796341418      0.03355135960872      0.13209486406158
  N   -0.41861515622551      0.91988970872876      0.26011129175892
  C   0.82525954686561      0.47027619878060      0.04306229205235
  N   4.43319491952335     -2.02874398969629      0.44153092877738
  H   4.10857674594047     -2.94697071579768      0.68810482022902
  H   5.35897097047435     -1.75831868028327      0.71438778674081
  H   5.02559625669195      0.30429072106518     -0.43750150059782
  H   3.71742542734113      2.22876863458873     -0.56082529093204
