35
Coordinates from ORCA-job ./opt_b97-3c_parallel
  N   -6.53994551172198     -0.50429089820751      0.31821515033521
  C   -5.39714377749020     -0.30792549768012      0.21158548720774
  C   -4.01162201198600     -0.13769344074837      0.10295567557508
  C   -3.31642155634862      1.08282535880737     -0.07894105302431
  C   -1.95314544287980      0.78668273621259     -0.12073131309229
  C   -1.79852162022428     -0.64611855413733      0.02725505181517
  C   -0.54274403911544     -1.21439415363353     -0.04055191695533
  C   0.60321247217245     -0.43750462891440     -0.18316621679135
  C   1.82518269954695     -1.15329828851091     -0.44265119895479
  N   1.70175155167301     -2.39346337304254     -0.97810379507206
  H   2.52586872966820     -2.93878453279757     -1.16412602642877
  H   0.88994074174838     -2.60747743990660     -1.52509524141159
  C   3.12834328270093     -0.74593516594241     -0.10320303951988
  C   4.19356006718897     -1.62631318245070     -0.33862392490458
  N   5.07543745168174     -2.36744536766266     -0.52661935611952
  C   3.43125172124635      0.48192878996889      0.57690644855117
  N   2.79518614481453      1.61402544830306      0.43581993943879
  C   1.63399048104426      1.85510999208839     -0.17474132985100
  N   1.58116203484390      3.12869556631982     -0.68380795462774
  H   2.46965428892377      3.60029625589144     -0.70253781498685
  H   0.98065431412247      3.29325117197655     -1.47411956189382
  C   0.48234060392910      1.02721768809755     -0.20257047794528
  C   -0.82288260380122      1.61009106267054     -0.18784078191240
  N   -1.04483295404449      2.97379108839973     -0.21409499551513
  H   -0.30221174398108      3.55443050573928      0.14281806862781
  H   -1.94320141474437      3.23073750392556      0.16037186818521
  N   4.52661801746195      0.50804078926791      1.36821252177468
  H   5.14597750465104     -0.28102182209955      1.40662546696769
  H   4.88589001980785      1.40365080967980      1.64477809051830
  H   -0.44169732244528     -2.28765083497532      0.04382078686716
  C   -3.08064308476764     -1.20615352453532      0.18688014562642
  N   -3.39685128149164     -2.54628062345353      0.29786626618179
  H   -4.35311204364252     -2.72020518911192      0.56651546074958
  H   -2.76158579630828     -3.08330144174949      0.86551000245513
  H   -3.80069082392638      2.03965194701347     -0.18608988516975
