29
Coordinates from ORCA-job ./opt_b97-3c_parallel
  N   6.71254789313702      0.55954388797077     -0.23711364024003
  C   5.55746813532178      0.45502865866876     -0.16846081746087
  C   4.15846349987461      0.32037939373875     -0.08512955402252
  C   3.45267163579797     -0.90343296891055     -0.24807017058452
  C   2.10101600930013     -0.62396146998449     -0.08674582802310
  C   1.96835135117410      0.81107303996743      0.17304707562381
  C   3.25930385272013      1.36756128338082      0.16884295787459
  H   3.52371987417315      2.40018662423022      0.32321960153837
  C   0.71379771337794      1.35220211918278      0.32361329589830
  C   -0.45152686368369      0.56179058758556      0.23200079854841
  C   -1.65717906141231      1.26496402273875      0.26614428943037
  C   -2.96193151218332      0.86819474283000      0.02110202660509
  C   -3.96597242345503      1.86081858511534      0.00707994985019
  N   -4.83491111770613      2.63405216553182     -0.02802792706158
  C   -3.37462793518517     -0.46829226106391     -0.30460204460446
  N   -2.70758529915461     -1.58707843787371     -0.08883966465662
  C   -1.42918898768172     -1.77554953848693      0.19655252514257
  N   -1.16523546349895     -3.03973542619877      0.59696277189687
  H   -0.32362173968448     -3.25458444452607      1.09619013414205
  H   -1.94702930003980     -3.66297873205962      0.69370336978685
  C   -0.30802610473219     -0.87741217713774      0.06743035887940
  C   0.96029868044383     -1.41836007820457     -0.10448024184335
  H   1.06956196942317     -2.47750508244728     -0.29777535132283
  N   -4.60369701470405     -0.63467977157353     -0.82380064573608
  H   -5.23379907776910      0.13811339928258     -0.94570396536616
  H   -4.94696702727544     -1.56968984322660     -0.94610796472659
  H   -1.55009130762457      2.32593673589378      0.45379700152389
  H   0.59778347392694      2.41792619890801      0.47699584396022
  H   3.90567918342001     -1.86000869433164     -0.44980220125232
