26
Coordinates from ORCA-job ./opt_b97-3c_parallel
  N   -1.40364994554923     -3.95570350015255     -0.03500966211861
  C   -1.50630252868918     -2.79911136794242     -0.01057286473634
  C   -1.69115116669603     -1.38889944728398      0.01970816318450
  C   -3.04291561249472     -1.02127026934524      0.13178440322011
  C   -3.62036637849364      0.21570784225315      0.13944365569689
  C   -2.95931996484259      1.45605718612383      0.01297081546806
  N   -1.66482215966146      1.71081482028051      0.03347142678228
  C   -0.58786833209864      0.92467218300787      0.06486003062591
  C   0.61429442898944      1.63702547814834      0.16467638852932
  C   1.82956799862260      0.98909564363815      0.09906812613077
  N   3.08238919504639      1.46157035914521      0.14574288854965
  C   3.82007331825517      0.32484875362222     -0.00383409586893
  N   5.15073527101611      0.36226511108123     -0.01303038043851
  H   5.62658790269559      1.23753414711396      0.10139249543472
  H   5.67250932152656     -0.48808112831199     -0.11492293746373
  N   3.15271664328684     -0.86146292975901     -0.14725462641958
  C   1.87637879817293     -0.47130435622287     -0.08426802345425
  C   0.70644517149861     -1.20641775041585     -0.15422123274183
  C   -0.53354129398119     -0.57862091118023     -0.04566013849718
  H   0.76321513137122     -2.27998966093811     -0.25721314727374
  H   0.55329257208937      2.71142722774757      0.24645794909434
  N   -3.74648392470793      2.57694085577810     -0.06100208231930
  H   -3.26219238756869      3.42503558404561     -0.29913477305140
  H   -4.68439078179227      2.49210697911124     -0.40847831224182
  H   -4.69845505581748      0.24628951393108      0.24042270552260
  H   -3.72764473387778     -1.85460266817583      0.21640149378605
