28
Coordinates from ORCA-job ./opt_b97-3c_parallel
  N   -1.32649672443756     -3.59382908252888      0.92663014207741
  C   -1.41832938457063     -2.50022821114772      0.54721814434916
  C   -1.68052485772776     -1.14219869060836      0.21192493651977
  C   -3.06202726762286     -0.84172185278635      0.31551819820860
  C   -3.72398090768634      0.32143746326800      0.08553464928805
  C   -3.13386344400132      1.56931426166144     -0.24261666512725
  N   -1.87759338771991      1.92012183067560     -0.09372799546913
  C   -0.75890683738155      1.20776915073547      0.08424221268725
  C   0.37445147263561      1.97295092440263      0.35419391356082
  C   1.64437697119953      1.42349683151569      0.30873692363336
  C   1.80743132104582      0.01810168624951     -0.12528381828249
  N   3.08789456302337     -0.31420030668702     -0.26085918880100
  C   3.76975661304475      0.81984107780462      0.09443607450206
  N   5.10319911611698      0.79668058788986      0.07244137392057
  H   5.65357929731404      1.58704424146009      0.34897928744700
  H   5.56732456506817     -0.05544330453487     -0.18837984290989
  C   2.93081876818100      1.91149074478570      0.44660795189689
  H   3.23973155582402      2.90312146142569      0.73218000287498
  C   0.68482661454449     -0.79232549250235     -0.32695902956516
  C   0.89842407493504     -2.09327369152423     -0.83831807580421
  N   1.11866741735795     -3.11407713281484     -1.34523085230829
  C   -0.60959918575533     -0.27751465165876     -0.06337904000774
  H   0.22466181267929      3.03434243827599      0.48947766179987
  N   -3.96038604166037      2.55226193580857     -0.70803870235794
  H   -4.95403163810286      2.45822631314700     -0.60608719231253
  H   -3.59135837924496      3.48689391767910     -0.69862524191050
  H   -4.80402571888282      0.29295229597932      0.16626431104808
  H   -3.67826875517255     -1.68666504686074      0.59093023647696
