34
Coordinates from ORCA-job ./opt_b97-3c_parallel
  N   -6.16039994561354     -0.19151565092352      0.34305059568623
  C   -5.00073280647654     -0.22114198350642      0.23647013832437
  C   -3.60623880606470     -0.19242384678211      0.11919476457629
  C   -2.72996939745886     -1.31686519601753      0.08978317700145
  C   -1.43313997543904     -0.82987700039083     -0.01814755097754
  C   -1.49657005397646      0.61894394549138     -0.06100837779350
  C   -0.33520121411142      1.35165844990796     -0.14713874535632
  C   0.91833695947477      0.73661041328852     -0.18975977822656
  C   2.03980039447434      1.62552969383712     -0.24761217238255
  N   3.25642137079453      1.47561223566040      0.26518464322156
  C   3.89010412477808      0.33440457156696      0.44981784177301
  N   5.11721836546836      0.45919619476832      1.04500712060602
  H   5.30411144668151      1.35627095838248      1.45877268478300
  H   5.48600808915422     -0.33478426253540      1.53606501916363
  C   3.53676766207908     -0.93544767781892     -0.03091202650334
  C   2.27349319199871     -1.40660450165985     -0.35597209078099
  N   2.25252192825389     -2.69248898331985     -0.83957169418156
  H   1.43063861875702     -2.99815372567903     -1.33286186762141
  H   3.12023929185755     -3.04994034970182     -1.19619740806326
  C   1.01287703971900     -0.73008188289200     -0.15971469980494
  C   -0.18406346156225     -1.47301681853207     -0.02884145637548
  N   -0.21381298716978     -2.86602549466047      0.06568359194060
  H   0.56214214065868     -3.27678580113624      0.56036885554164
  H   -1.08843295547875     -3.19348567684573      0.44166859103604
  H   4.35373113604208     -1.64014049799930     -0.13176446431823
  N   1.84364748906030      2.87371039458000     -0.76124317232314
  H   2.65981765271943      3.45765716922796     -0.80322495345332
  H   1.14532430965191      3.01290930003675     -1.46620512845951
  H   -0.38553292375394      2.43059949526832     -0.10763649689518
  C   -2.85275092216204      0.99912899835178      0.04512965493650
  N   -3.35960576301586      2.28931591611586     -0.01382139613171
  H   -4.33338192216856      2.34436833342184      0.24477432521463
  H   -2.82319568726798      2.96316978966424      0.51038331507895
  H   -3.06928358500381     -2.33941335406880      0.12215510616438
