25
Coordinates from ORCA-job ./opt_b97-3c_parallel
  N   -0.58358993712438     -3.69472167792365     -0.89015285006883
  C   -0.82724282882784     -2.61469670097469     -0.54099030405139
  C   -1.25570010179826     -1.29399906601731     -0.23149412098228
  C   -2.64937284496720     -1.14936744919466     -0.34419380386649
  C   -3.43727788649965     -0.05186328062918     -0.12777925841714
  C   -2.98304167841964      1.24786479446702      0.16303136362958
  N   -1.77105952998059      1.72294622120304     -0.10112289128279
  C   -0.60099145817433      1.13629088494639     -0.23194669259712
  C   0.45487608416302      2.02759533089173     -0.56723347016931
  C   1.74586681306734      1.62941363211512     -0.40170159108111
  N   2.91381805374962      2.32056668534378     -0.53035128504959
  C   3.81301509051862      1.44733552602491     -0.08020672179734
  N   3.36587906498751      0.21985055724449      0.36012340555162
  C   2.05951090939020      0.30279101829980      0.15282328723581
  C   1.04228435675069     -0.64476210220268      0.36389557257267
  C   1.38575607503592     -1.89209233685286      0.93387081737327
  N   1.68877214029543     -2.86925182224623      1.48165264278049
  C   -0.28291251488195     -0.30229108582928      0.03991137686800
  H   4.86731126358493      1.68253847047479     -0.05337312713661
  H   0.19433234088310      3.04683149906543     -0.81034313427946
  N   -3.87440740656773      2.17434441788865      0.59368041417966
  H   -3.52987603881388      3.09382212382479      0.80515567306243
  H   -4.74528762661100      1.89416799155220      1.00382192845288
  H   -4.50803221377683     -0.19029185051417     -0.21255181359979
  H   -3.17397762204389     -2.05685211282526     -0.60917150061502
