32
Coordinates from ORCA-job ./opt_b97-3c_parallel
  N   4.97509226090901      1.86442570252753     -0.75293627210355
  C   4.07508970665094      1.19642179975449     -0.43398449555679
  C   2.95216278062571      0.42937631845423     -0.06339638088278
  C   3.20214194874124     -0.80931043099089      0.55693655223069
  C   2.35861760382516     -1.83768488034865      0.82485619092153
  C   1.01455154754569     -2.04127704867349      0.39063285985997
  N   0.62944436278631     -3.34967679952004      0.48581103909061
  H   1.20902506696742     -3.95508511316245      1.03768357433028
  H   -0.35327616353992     -3.57431627580217      0.45335298254965
  C   0.12983016039109     -1.04485010873730     -0.07409831936883
  C   -1.20938422961482     -1.39270878918421     -0.46360402020725
  N   -1.52052880641696     -2.67324002322158     -0.91085499662032
  H   -0.84848422272806     -3.07075795040038     -1.54921236227173
  H   -2.45603388264583     -2.74893516044679     -1.27393597906404
  C   -2.23757413147920     -0.48050162200493     -0.29150060902417
  C   -1.95812289238756      0.83297288171819      0.25608385618183
  C   -3.21499983568385      1.45265989104369      0.37102436942207
  N   -3.49290355197354      2.74396912606994      0.77124949630290
  H   -4.47965802215279      2.88892214370949      0.91830701174741
  H   -2.94912320991480      3.07192963127246      1.55266027607059
  N   -4.20439889064591      0.63832308109925     -0.07324302641662
  C   -3.63021353107429     -0.51090270331097     -0.48251657283224
  H   -4.24895115051542     -1.31496008257580     -0.85440628675560
  C   -0.65016231216808      1.26970468854191      0.33144009096644
  C   0.41470818987526      0.40746911053256      0.08294678084654
  C   1.67803119500984      1.01945752740226     -0.21009652344543
  N   1.65285820739676      2.31891019544426     -0.60449022426548
  H   2.52006982346079      2.78050601787891     -0.82223219064390
  H   0.83452834281915      2.67294060314769     -1.06236111406824
  H   -0.44648121313308      2.30819635917021      0.55737129905322
  H   2.81270493728774     -2.69146371992714      1.31288093984588
  H   4.23608946448052     -0.97268119256001      0.83674726890658
