33
Coordinates from ORCA-job ./opt_b97-3c_parallel
  N   -3.96468526929633     -3.64830173427841     -0.51324784023977
  C   -3.32277928267492     -2.69134049403117     -0.34955719866716
  C   -2.59851175019208     -1.49369167027446     -0.15658278069652
  C   -1.23324199560523     -1.63073053518704      0.09759436591438
  C   -0.19824534476032     -0.71437599927449      0.17766986877019
  C   1.09329811060447     -1.29392062892183      0.28842671555452
  C   2.23099673581962     -0.55110559762870      0.17299579201194
  C   2.12734111593937      0.87656025461854     -0.13108292010665
  C   3.41051586564817      1.36789191900439     -0.32966883353177
  C   4.32328436858405      0.29619615589920     -0.13379086016402
  C   5.72126002149601      0.35422976049083     -0.20366883654810
  N   6.88433899270608      0.34423598258680     -0.23970361236910
  C   3.61296148162897     -0.88707660929366      0.17678151339249
  N   4.15846449555244     -2.12483221334720      0.35623578094107
  H   5.15348079021336     -2.15551145069057      0.50825983625248
  H   3.64916835048535     -2.77055446749856      0.93375330930207
  H   3.69275624863892      2.37960716225949     -0.56951074631828
  C   0.87511801224887      1.46563463211069     -0.16383674709948
  C   -0.29970644147217      0.73897271760670      0.04638481797102
  C   -1.52101557388812      1.47365731930985      0.20886200056952
  N   -1.39192074824944      2.79638365614289      0.46812897390840
  H   -2.20654780293800      3.37049727391050      0.60000453595281
  H   -0.53934014419213      3.13972049801102      0.86551838629106
  C   -2.86078255620839      1.00933000666205      0.10064504828451
  C   -3.86058718248929      1.98445760543436      0.28239974274745
  N   -4.68997528384368      2.79156502301383      0.42349754974887
  C   -3.35566187930886     -0.29494069999061     -0.19308242480605
  N   -4.66997095238214     -0.40788542726868     -0.44905875486455
  H   -5.27690977064932      0.39252881338300     -0.42809591905883
  H   -5.09380356375572     -1.31438440636325     -0.54874476054204
  H   0.82195561891372      2.51711344409281     -0.41012402514288
  H   1.14670650040442     -2.36938120114969      0.40865485010356
  H   -0.92002092477719     -2.66349015413845      0.18079772833871
