35
Coordinates from ORCA-job ./opt_b97-3c_parallel
  N   -6.90272373972460     -0.43889015195723      0.37574064492203
  C   -5.74829406326633     -0.45508010552363      0.23016267021562
  C   -4.35648164633481     -0.40212393571384      0.07260000006817
  C   -3.48312951117015     -1.49329603380675     -0.13513329549118
  C   -2.18792799306133     -0.97845467643028     -0.21743871693020
  C   -2.26137609108574      0.47015801268469     -0.05546073244503
  C   -3.61334569493598      0.81001644709573      0.14327296986880
  N   -4.15003125418095      2.06931152005216      0.28666725297242
  H   -3.58165475067400      2.72563779674901      0.79593295659920
  H   -5.10648008305810      2.08492418548224      0.60483371783439
  C   -1.10098783371346      1.20781259803524     -0.09089049566320
  C   0.16470885931155      0.62126597075579     -0.24498989402484
  C   1.26126011105573      1.52689368843395     -0.39903185862915
  N   0.96038850941014      2.77848510098685     -0.83348637260134
  H   0.14754617796701      2.90912315369676     -1.40414382786109
  H   1.69257364126878      3.45847000731777     -0.94509992622369
  C   2.61314961430241      1.30235639411960     -0.05065169330879
  C   3.47731107586433      2.40784476443096     -0.14787097481712
  N   4.18557708178799      3.33108524576582     -0.22343461274552
  C   3.21445597578811      0.09638025234640      0.40887999162329
  N   4.43336019568219      0.20822818177032      0.97450863417820
  H   4.89681638688957      1.09903431195696      1.00864317661607
  H   4.99798628269520     -0.60722926239429      1.13776593267592
  C   2.71031050810386     -1.20670089467403      0.20918418764764
  C   3.60837858179548     -2.25266774482043      0.48510642513603
  N   4.36132615587604     -3.11583337994453      0.70354809780885
  C   1.45815722837319     -1.59269202460435     -0.35945045930559
  N   1.41194992720391     -2.85243936743246     -0.84235586164500
  H   0.62255577699646     -3.17592156597130     -1.36430973673014
  H   2.21451710227208     -3.45469343064134     -0.79946233570448
  C   0.24907830479603     -0.83436533158153     -0.33478531765279
  C   -0.94848586865177     -1.56893399225517     -0.34071442592397
  H   -0.91545106372032     -2.64887498851626     -0.33064423747308
  H   -1.15529331894911      2.27723972168656      0.05991164751669
  H   -3.78403237171340     -2.52527077419912     -0.20289035630708
