35
Coordinates from ORCA-job ./opt_b97-3c_parallel
  N   -3.23025413155629     -3.69038244615424     -1.24919623482369
  C   -2.68005922657742     -2.73918074518726     -0.86303547873463
  C   -2.07148931205034     -1.55973772519186     -0.38611116850644
  C   -0.71267041054131     -1.64968339171179     -0.02149596014396
  C   0.23195141466304     -0.67789482503744      0.18361030415535
  C   0.03034364820097      0.76466695883542     -0.05040457194426
  C   -1.20815949112532      1.38396927986825      0.35450723780720
  N   -1.13696126018173      2.64956686958852      0.81210406544735
  H   -0.25635580422983      3.13623503703899      0.81309388843167
  H   -1.96691427444502      3.16240848656361      1.05363637198797
  C   -2.50042579715783      0.80094236856293      0.36657189209000
  C   -3.54088603415243      1.61908401355771      0.84254945923333
  N   -4.39889345141337      2.31336335663448      1.22007661652667
  C   -2.91541237541051     -0.45435572706091     -0.18183215427883
  N   -4.22769188127824     -0.59544872568498     -0.45698569719640
  H   -4.88140830185232      0.13507268913208     -0.23946657266567
  H   -4.60029324745890     -1.49978832288935     -0.68958208753333
  C   1.12769424393256      1.53988116788633     -0.45134662764369
  N   1.01698482796925      2.88973112600373     -0.79429266494312
  H   1.84663753358068      3.24567452527706     -1.23877382835140
  H   0.20131320972457      3.11550667550001     -1.34222807039185
  C   2.41772972688924      0.97700019444466     -0.43752580534215
  C   2.62988004729501     -0.35825370691167      0.05581804317847
  C   4.03778064737727     -0.53584154790533      0.04696157445136
  N   4.72013324498060     -1.69168593475213      0.42238994323289
  H   4.47165107319796     -2.49583421978184     -0.13885140641492
  H   5.71764738995552     -1.54077700101017      0.35505074390769
  N   4.66407439646883      0.57117620151597     -0.36185071061217
  C   3.69493694086527      1.49064531707283     -0.64962583566370
  H   3.98476593937788      2.47777538101210     -0.97849022983425
  C   1.57424196728070     -1.15203212800952      0.44996719991619
  N   1.78476070747018     -2.39145958669028      0.98366536872723
  H   2.72695953703446     -2.56330059619177      1.30374609140381
  H   1.07955612519523     -2.73704342192700      1.61111641666434
  H   -0.34615061323063     -2.66765008849320     -0.00260949633774
