28
Coordinates from ORCA-job ./opt_b97-3c_parallel
  N   -3.92137167182768     -3.29895440004336      0.77063270733803
  C   -3.28027489761727     -2.35265095884895      0.55123481079573
  C   -2.56171541618478     -1.18621539075978      0.28532636522470
  C   -3.14724759298675      0.08565586175180      0.07821227016884
  N   -4.43743617112710      0.37890556043596      0.12502325128716
  H   -5.12241299513393     -0.32994508364557      0.32547790110191
  H   -4.75815060653159      1.31888452271852     -0.03923568280597
  C   -2.10536960989093      1.05235286468945     -0.20601988169988
  C   -2.41366078319605      2.39346542968524     -0.44952190881150
  N   -2.81890881702816      3.46833934923012     -0.63342770334947
  C   -0.89136213242486      0.38069998802870     -0.15678549682972
  C   -1.16808871709225     -1.03318869343715      0.13923376292993
  C   -0.15619523141218     -1.95806933024333      0.10327554587041
  C   1.16186768006595     -1.55629797929567     -0.16185320200407
  N   1.99648236578849     -2.51148814611831     -0.54895558262784
  C   3.29749817604599     -2.45283068772378     -0.74985461284148
  N   4.20638243672815     -1.66520412952175     -0.18902559511103
  C   3.94275485707135     -0.49998764142994      0.36254521803412
  C   2.78052357005389      0.29706324088953      0.28502690418908
  C   2.96633302327166      1.58466714283483      0.85716332221710
  N   3.20011844103233      2.57991010693437      1.40682399865862
  C   1.48897054837743     -0.10008103269271     -0.13675219733431
  C   0.43894018433412      0.81870288638328     -0.29162539829043
  C   0.68370998080392      2.17706081508939     -0.60259565298598
  N   0.84274189701077      3.27508006393765     -0.94241753056002
  H   4.77197560857584     -0.05622186293013      0.90196447242307
  H   3.69971127029670     -3.25434739752415     -1.35961526212699
  H   -0.35957740610597     -3.01814640519649      0.14501457734209
