29
Coordinates from ORCA-job ./opt_b97-3c_parallel
  N   -5.34164526553136     -2.19150384258221      0.01262651587217
  C   -4.40769759880657     -1.49584168557689      0.00719606529021
  C   -3.32836586715619     -0.58677237962061      0.00088166731373
  C   -3.67409238596472      0.81056725907760     -0.00504285212831
  N   -2.87855619556242      1.88350985264902     -0.01511287802509
  C   -1.55587782973772      1.89598742949735     -0.01788612865912
  C   -0.55839772671520      0.91961270992527     -0.00857930926166
  C   0.76616797289717      1.39670836820730     -0.00906265618067
  C   1.83739918439514      0.54136442791804     -0.00107453889495
  C   1.61205824261289     -0.91206237245164     -0.00613531041121
  C   2.85715063532687     -1.53969445618404     -0.01435771108536
  C   3.84755923962235     -0.53295353390267     -0.00704620486430
  C   5.23741703403031     -0.71429389736208      0.01184332264016
  N   6.39738419539365     -0.79989428358297      0.03670011123705
  C   3.23495583902053      0.75100300055722      0.00482842545777
  N   3.90030111405759      1.94221890233000     -0.05027555146096
  H   4.88127004490634      1.91461156909005      0.17561390203796
  H   3.43040697475668      2.74542754783303      0.32924458101066
  H   3.05143140613830     -2.59908847293567     -0.01502053501631
  C   0.32187253019394     -1.39330572246689     -0.00335338007607
  C   -0.78686869618334     -0.53026504417042     -0.00162187017084
  C   -2.04422673515630     -1.12342237692909      0.00178276040645
  H   -2.02800938481994     -2.20666201655622      0.00594789567363
  H   0.14565932766006     -2.46188324360287     -0.00429934726219
  H   0.91529065532591      2.47041075349492     -0.02443705940455
  H   -1.16763841063187      2.91231901468785     -0.02822357938771
  N   -4.97708385458495      1.12132565865141     -0.00090849429306
  H   -5.69950969146668      0.42234493818673      0.00460458739194
  H   -5.22232571122047      2.09550969631850     -0.00801894134938
