34
Coordinates from ORCA-job ./opt_b97-3c_parallel
  N   -5.01867949247604     -2.02498958049492     -0.76040116803839
  C   -4.12051078358340     -1.32243863587010     -0.51154793013503
  C   -3.09045848600147     -0.41949851955919     -0.19291649143156
  C   -3.49125933877028      0.91053630477067      0.12483619874054
  C   -2.62111951065560      1.97376457949623      0.40752501885615
  C   -1.24584735486921      2.02513817763690      0.27664497457112
  C   -0.26457774349687      1.06771166809015      0.04221367363079
  C   1.06813989990207      1.52360089006259     -0.13442165522712
  N   1.37293905337955      2.86209203358146     -0.30576653679625
  H   2.30556634961875      3.00990737485230     -0.66490082643961
  H   0.69526472853381      3.39104601879669     -0.82754638810517
  C   2.10870172006670      0.59947749466283     -0.07440323711315
  C   1.84784972053499     -0.81550972836383      0.05487260116684
  C   3.12032006635822     -1.42495888968280      0.01200530823267
  N   4.10233826931411     -0.50827290238627     -0.06192737570666
  C   3.50499383476392      0.71065380694682     -0.09523498115485
  N   4.25437912727108      1.88834725061559     -0.16699693888977
  H   4.10397328685403      2.49593187055229      0.62778966289276
  H   5.23852266104203      1.66582074839019     -0.22383637862554
  N   3.38724310189728     -2.79385959898663      0.06793113167842
  H   2.96415267512499     -3.30777885851337     -0.69387459799319
  H   4.38522728769481     -2.95280240586419      0.05658216390174
  C   0.56285919745982     -1.30790623565328      0.20616471525761
  N   0.37279314871324     -2.65714793171818      0.40416472700473
  H   1.20490183470313     -3.14219679482778      0.70834164260408
  H   -0.43098283598911     -2.91262103845620      0.95128578871837
  C   -0.54048492886294     -0.39434470820951      0.08559048002623
  C   -1.78779786572598     -0.94918070155785     -0.08740864945471
  H   -1.78964667674982     -2.02364166267517     -0.21942695270826
  H   -0.85904659140014      3.02511209987355      0.43797194149492
  H   -3.10156398784700      2.90667441493856      0.67599445066216
  N   -4.81358473326541      1.16605461585996      0.16863199089532
  H   -5.48707264941629      0.45467467265379     -0.05804502525966
  H   -5.14861743042256      2.09685622143923      0.32882632944423
