33
Coordinates from ORCA-job ./opt_b97-3c_parallel
  N   -5.89858430205397     -1.81059632959752      0.80527374234022
  C   -4.79279590992755     -1.52608728654651      0.59051471562467
  C   -3.46227705518409     -1.13150757832445      0.30613206960609
  C   -2.49606099192621     -2.11490015863042      0.39269643118216
  C   -1.13410303956010     -2.06506487757536      0.13858464400759
  C   -0.27703163546354     -0.98799266690002     -0.03600837454523
  C   1.11653334696214     -1.28527533681271     -0.18568858256265
  C   1.52264681590031     -2.62827124207157     -0.36598563598245
  N   1.83641955646363     -3.73576352338698     -0.51716287041005
  C   2.07389105478261     -0.28895334632907     -0.08699301403886
  C   1.64484784044658      1.08257121864267      0.23436331659593
  C   2.75695253108451      1.86942223758973      0.40746611893164
  C   3.89552999644460      1.04287062507025      0.17421689877702
  N   5.16645991443713      1.42613238779594      0.22339577510568
  H   5.90609831743026      0.76848636369258      0.03805150571204
  H   5.42188820821137      2.36930276739877      0.45198073079693
  C   3.47444504905859     -0.29320948519751     -0.13222019836874
  C   4.38623713856875     -1.31722171536468     -0.38991813719779
  N   5.24614376951488     -2.07597587276618     -0.59170953240176
  H   2.77397384742382      2.91932693618093      0.64747144474059
  C   0.27099300106237      1.39144169821557      0.28602306729153
  C   -0.05712311619149      2.71200527428591      0.67131278013247
  N   -0.22243291155378      3.78899319386524      1.07304712511081
  C   -0.70394900289228      0.41537197220172      0.03029229142322
  C   -2.02756913877416      0.84530375834027     -0.30987024993691
  C   -2.13373179393193      2.12303619797140     -0.91154686128720
  N   -2.34494918859724      3.10701373411679     -1.49455301173663
  C   -3.28421042589731      0.20864821083461     -0.16232031501052
  N   -4.40004688271618      0.89972353186641     -0.46329062640262
  H   -5.30591536196541      0.47137382907370     -0.39989884854416
  H   -4.35542114402286      1.86032441033232     -0.75479785559139
  H   -0.65390167171451     -3.03348722745902      0.15621827278171
  H   -2.86942092682489     -3.09187790941583      0.66888319655794
