27
Coordinates from ORCA-job ./opt_b97-3c_parallel
  N   -0.70666965564667     -3.70064995811338     -1.07854667044055
  C   -1.01441561532644     -2.67183747183958     -0.63682605359366
  C   -1.54097007233343     -1.41933013313379     -0.21458955630781
  C   -2.92676433551010     -1.45704387866607     -0.07120248827155
  C   -3.84690302809729     -0.46331604434616      0.18903500588915
  C   -3.63836426298766      0.91369969085334      0.21216770461912
  N   -4.70317199353669      1.73356511676982      0.42304586605622
  H   -5.57002815597919      1.35510748898354      0.75699347325509
  H   -4.55795484678080      2.71223956340406      0.58828311801662
  C   -2.40851084686023      1.54196320952709     -0.06989848173068
  C   -1.11271598586980      1.07427847434008     -0.18397319518714
  N   -0.24244966363980      2.11993681445626     -0.38053128674011
  C   1.03101287086142      1.87472057418791     -0.32784200343513
  N   2.01216076472749      2.82666305054599     -0.47220459658422
  C   3.13750966810952      2.17691564029659     -0.25173196754733
  C   2.97354795998421      0.77062986010418      0.05871681760382
  C   4.02194075163988     -0.11523271087946      0.32964100083766
  N   4.93502255185776     -0.80187818073202      0.54507291237091
  C   1.60677003291855      0.55575019072024     -0.01305133690660
  C   0.73238131586633     -0.52695549839079      0.12408919907195
  C   1.25945561359182     -1.77233012465830      0.54307184859844
  N   1.73881229409070     -2.73353860680256      0.98192866848237
  C   -0.64989795116523     -0.31411823578002     -0.05819390373888
  H   4.09417896388743      2.67770364593922     -0.30347308800496
  H   -2.44706829425391      2.61965032629358     -0.16979096903652
  H   -4.86769893324616     -0.79848756475050      0.32890406499843
  H   -3.35215611540391     -2.44568562992503     -0.17795501747597
