29
Coordinates from ORCA-job ./opt_b97-3c_parallel
  N   4.59921650073950      2.12448051764863     -0.29280828476162
  C   3.66027039823032      1.44217727420514     -0.19604638107083
  C   2.57503599594315      0.54711647508300     -0.07456608997925
  C   2.91453615866930     -0.83262986016688      0.06676158647178
  C   1.99151380241181     -1.87386266541292      0.22469801207290
  C   0.61242218296188     -1.85117887568059      0.16994874096762
  C   -0.33183375419600     -0.83916152737320      0.01136143540435
  C   0.01054231339344      0.59384452637603      0.02329029723739
  C   1.29880711042291      1.11215054479146     -0.03558326345431
  H   1.32372287943505      2.19477502374346     -0.06571916964804
  C   -1.02091081702820      1.54613690391873      0.07916714281948
  C   -2.34279020115623      1.16868247079297      0.09804365015631
  C   -2.69989377942945     -0.24349234431189     -0.00324244780178
  C   -4.09710106898833     -0.31517002658682     -0.03994772067575
  C   -4.59774162833118      0.99922992874560      0.05056757270616
  C   -3.54269615065691      1.90722364114045      0.12690747868055
  H   -3.62325416944687      2.98095906716943      0.18804466565345
  H   -5.64604826025235      1.25891804037125      0.05357128301195
  H   -4.70898710771433     -1.20260489093971     -0.10264297235131
  C   -1.70139348747434     -1.21595930552729     -0.08258590715675
  N   -2.06624229714462     -2.54837292803168     -0.18132420937641
  H   -1.50410979043027     -3.11124278487033     -0.79659331731287
  H   -3.04479630822546     -2.68390926103203     -0.36755716145661
  H   -0.75692181762763      2.59638564453753      0.09505879254116
  H   0.18627572281816     -2.83530886702109      0.32058561585676
  H   2.42981440005484     -2.85124057272956      0.38773690518252
  N   4.22405861318716     -1.15508899644667      0.06530979291651
  H   4.93616187326524     -0.44803629739405      0.00768937495319
  H   4.51638501696948     -2.10398169839936      0.20081332521372
