28
Coordinates from ORCA-job ./opt_b97-3c_parallel
  N   -1.17441562147833     -3.91794477884160     -0.02524084833860
  C   -1.29385788218985     -2.76329818436982     -0.00999141392020
  C   -1.60127711552418     -1.37095919258194      0.00870033545251
  C   -2.96976830945039     -1.09437984910518      0.02212703610064
  C   -3.64601609369847      0.10438419111637      0.03399767942442
  C   -3.12313205900008      1.39859633293899      0.04109839413670
  N   -4.02410996698574      2.45077700105502      0.10871653626099
  H   -4.95840504210134      2.25321157848304     -0.20584404191691
  H   -3.69238386792939      3.34225574307982     -0.21703893986599
  C   -1.76549414872172      1.73361560806911      0.04955260959979
  C   -0.59227562509283      0.98727879860156      0.03412945183992
  C   0.61013987455746      1.72385268668585      0.04217129959323
  C   1.82694037358268      1.08949633178137      0.02413490441930
  C   1.81582764082611     -0.40063729360225     -0.00408121683909
  N   0.69107747844953     -1.11871745479338     -0.00892411667708
  C   -0.48270889475410     -0.49620592337943      0.01000381594003
  C   3.12123549266096     -0.83500745134473     -0.01946147904547
  C   3.94672643917821      0.33347970682796      0.00319738327873
  N   5.29578815115580      0.30248498845188     -0.03316931902400
  H   5.81706694494506      1.13872384455472      0.15656611688421
  H   5.77503370133461     -0.56342017176525      0.13184727690478
  C   3.15568042732988      1.50314963331046      0.02752564002283
  H   3.52568451527288      2.51621783076076      0.04206701961625
  H   3.46066391513959     -1.85747841340025     -0.04512373999772
  H   0.55211904023932      2.80566571817056      0.06176358200904
  H   -1.58495484947196      2.80471290838225      0.07462727119242
  H   -4.72739350622648      0.02807282148939      0.04363896518242
  H   -3.59976897374740     -1.97345462447526      0.01581456506686
