28
Coordinates from ORCA-job ./opt_b97-3c_parallel
  N   -1.25624603987786     -3.93326633439636     -0.03521470828687
  C   -1.39702655742634     -2.78068999591671     -0.01649785020264
  C   -1.63938357593516     -1.37688366961917      0.00609546622879
  C   -3.01107010362409     -1.07974925150233      0.02513731845740
  C   -3.67061720486086      0.12139849623231      0.04325148635141
  C   -3.12684654314782      1.41174799152818      0.04620888346481
  N   -4.01949013250138      2.47269958007526      0.11988000403646
  H   -4.94971117037499      2.28812773287130     -0.21446786669590
  H   -3.67431464542344      3.36302694293080     -0.19538650748994
  C   -1.77066114480881      1.72114491304149      0.04542782091258
  C   -0.59544367042610      0.96180408625797      0.02889227351417
  C   0.59212468505416      1.70565482302899      0.02987610556987
  C   1.83742152476203      1.10351808657015      0.01205912152596
  C   1.91345926446952     -0.36772124205804     -0.00506194916698
  N   3.18355532168566     -0.79635422392854     -0.02027396276122
  C   3.92616036129572      0.34824549527660     -0.01351762945149
  N   5.26688236134159      0.25431362460906      0.00180942005075
  H   5.67222753572064     -0.65233152641963     -0.14945645973820
  H   5.83837181986053      1.05944524890518     -0.17042383301367
  C   3.15349601687211      1.53923740590759      0.00704501416862
  H   3.52253701621161      2.55168954650299      0.02277253138725
  C   0.75646333069514     -1.12205891552406     -0.00962883729186
  C   -0.50671643342074     -0.52612868474692      0.00852047377905
  H   0.84548313507376     -2.19815154878933     -0.02388536468300
  H   0.51773929511103      2.78564904955061      0.04513533718442
  H   -1.57415288239636      2.78882566300863      0.06361906088669
  H   -4.75273461765402      0.05940238875994      0.06193799682118
  H   -3.65211043597550     -1.95094886335601      0.02036690724237
