29
Coordinates from ORCA-job ./opt_b97-3c_parallel
  N   4.66107516659496      2.40519122764752      0.22021110501437
  C   3.77210015539503      1.65645097877743      0.13232813704515
  C   2.75254557947207      0.69005239247301      0.02732205944255
  C   3.17295705335654     -0.67928631999688     -0.07351477585192
  N   2.44055568271815     -1.77343320578851     -0.28322270761185
  C   1.11482834417647     -1.86957294217782     -0.26274173644912
  C   0.06286436286882     -0.98899229391352     -0.04304546632229
  C   -1.25553002288048     -1.54894082325943      0.05015175656180
  N   -1.44863219775016     -2.90458699794625      0.12482706480194
  H   -2.39015615632545     -3.19771735206424      0.31418179945229
  H   -0.76767833606254     -3.44639484727150      0.62510365437835
  C   -2.36004962937908     -0.70145263304942      0.01126990943198
  C   -2.18258636103432      0.73919946379940     -0.06164932064743
  C   -3.50300197593794      1.26379379371695     -0.04508350084640
  N   -3.88292480227002      2.57838561879696     -0.03600279351970
  H   -4.86112016936489      2.71679302513278     -0.23115355200708
  H   -3.28429865681894      3.22356672520978     -0.52204065875240
  N   -4.41850153428092      0.27888418996268      0.04208277136688
  C   -3.74256868221227     -0.89401744449699      0.09015462578021
  H   -4.29462987239298     -1.82087091657703      0.14892883443136
  C   -0.93037716313217      1.29297399346239     -0.03913822463306
  C   0.21538818401529      0.47897751748041     -0.01396727061308
  C   1.43212293438223      1.14200120050935      0.02114882605602
  H   1.34825100791273      2.22135483068760      0.05843333401087
  H   -0.79527711279373      2.36781554558629     -0.02127278998429
  H   0.81145968315001     -2.88618653907103     -0.49160687245057
  N   4.48715507892582     -0.92937711339322      0.01913563671930
  H   4.78991826012926     -1.87871768158218     -0.10613407691841
  H   5.16520048877104     -0.19874853911942      0.14772686828265
