34
Coordinates from ORCA-job ./opt_b97-3c_parallel
  N   -6.52502419915681     -0.99388615777076      0.32870998146821
  C   -5.37319979803211     -0.86974228186076      0.21486388632749
  C   -3.99530722258341     -0.64859317012789      0.08656210351892
  C   -2.97601562255374     -1.63267148688822      0.05099216511824
  C   -1.76032601700988     -0.96221977269503     -0.06607397558295
  C   -2.03040788903932      0.47241222875020     -0.10398942059653
  C   -0.97479103310369      1.35295901598198     -0.16616121073380
  C   0.36486887339521      0.93552330667260     -0.19940110913069
  C   1.35351594437205      1.96693082441321     -0.19586692794495
  C   2.67725823081516      1.87427875370234      0.22486240875513
  C   3.48163250717299      0.76562217943758      0.44652744525668
  N   4.71869584741840      0.99936016076083      0.96283184806004
  H   5.42113679592367      0.28092901003691      0.92731549515041
  H   5.05903915868607      1.94182134969833      1.00369532777662
  C   3.18460484368887     -0.58137404565606      0.08914202458661
  C   4.28393074304650     -1.45529354656649      0.05063001033050
  N   5.19890085699127     -2.17885158446686      0.01989371302946
  C   1.93337878406331     -1.11600930872042     -0.30197210716270
  N   1.96032368020350     -2.39810877230955     -0.74665177665289
  H   1.20173922357820     -2.73951349853530     -1.30350380414168
  H   2.83789074740099     -2.87777313084405     -0.84502798064492
  C   0.63992401784278     -0.50265741045045     -0.18296405202300
  C   -0.44686830831523     -1.38592150242984     -0.10327600192347
  H   -0.25952718799786     -2.44372731655157      0.01193322809198
  H   3.17757146601747      2.82607990531228      0.36519469706772
  N   0.94272508685890      3.24594934750627     -0.50648967082354
  H   0.20059839786577      3.33147236910446     -1.17658993043218
  H   1.67455923256255      3.91841165507713     -0.65035362879170
  H   -1.18865100035281      2.41034160887570     -0.10162997064364
  C   -3.42314217700352      0.64905368402676      0.00895696778030
  N   -4.12507694616569      1.83893207789486     -0.03805973677475
  H   -5.08791385172037      1.75597102416447      0.25084038053368
  H   -3.67700039769197      2.60883762006874      0.43249803962479
  H   -3.13676855897721     -2.69589049661139      0.11266359212675
