30
Coordinates from ORCA-job ./opt_b97-3c_parallel
  N   -2.06096154629188     -3.67069765898446     -0.44894944310766
  C   -1.84195749520330     -2.54048658962393     -0.27525103864490
  C   -1.67476713894387     -1.15123395188916     -0.07825830036609
  C   -2.88564852153144     -0.45244936649888      0.00979270146478
  C   -3.05200100993387      0.94241772503131      0.15630715842284
  C   -2.12512088762428      1.94721352792515      0.07399970872543
  N   -2.55387129346517      3.25534539647822      0.12312324391366
  H   -3.47815726298729      3.42878274096098      0.47675012642003
  H   -1.88296037391938      3.95227821403964      0.39482054692303
  C   -0.72118893017541      1.80043300098013     -0.11581278388964
  C   0.10038840697045      0.70975054413271     -0.09984419184351
  C   -0.30316492262295     -0.69729091137561      0.03382405592135
  C   0.68040153637132     -1.65981755818210      0.17284481079012
  C   2.04176251865816     -1.36332103285340      0.14475653056319
  C   2.47308528954261      0.03143609520735     -0.06669095134071
  C   3.89695571519071      0.05368457746118     -0.07396926524055
  C   4.31097121941624     -1.24354820165913      0.12190232944397
  C   3.18219926017017     -2.12448958795854      0.26012901668164
  H   3.23121129411419     -3.18944283324420      0.42058420764357
  H   5.34138005508040     -1.56523092577684      0.16615672657722
  H   4.51473101886306      0.92563390706264     -0.20687165273190
  C   1.52649565763576      1.01216525838064     -0.19516368161684
  C   1.95676018588347      2.35088021809064     -0.35525149911017
  N   2.32856725943724      3.44390088578473     -0.48635838884539
  H   0.38751378421633     -2.69360903367086      0.29040788273687
  H   -0.21515461618410      2.74819177165738     -0.24994647190985
  H   -4.07674185768679      1.25850765052638      0.31790930144687
  N   -4.06697602045379     -1.16032097484266      0.02438620108340
  H   -4.88143409486933     -0.68778539644472     -0.32506334971338
  H   -4.03091455915719     -2.13652818441466     -0.21832082239738
