29
Coordinates from ORCA-job ./opt_b97-3c_parallel
  N   -0.89793764977682     -3.32468424007536      1.17399606424937
  C   -0.97371793449171     -2.26925707075049      0.68953581598043
  C   -1.23571058247372     -0.96951674729278      0.19987069761260
  C   -2.60615200308240     -0.69988677302432      0.01829414615389
  C   -3.17357853635010      0.54501795043282     -0.32156917333071
  C   -2.62934238672698      1.80140293276427     -0.21996291091076
  C   -1.30666164983345      2.10945516778564      0.19582718789345
  C   -0.17741511544466      1.33644437315340      0.26013884116254
  C   1.03443443374695      2.06457122067081      0.52365057016397
  C   2.24533582295053      1.48784030470552      0.34114334748424
  C   2.32514527522216      0.10455278668847     -0.15728791871042
  N   3.56827615183920     -0.25546056827777     -0.39341290853684
  C   4.33753805765641      0.85684586145752     -0.03501726214324
  C   3.60269492210018      1.92488700828060      0.40355666546738
  H   3.96262210751383      2.88916807942688      0.72087196978922
  H   5.41166410432462      0.79672747160144     -0.12777116298820
  C   1.14141333348839     -0.65922536975019     -0.31736734701087
  C   1.26543353641018     -1.96590758061899     -0.84578850731965
  N   1.37832928849915     -3.00128170378391     -1.35782628620401
  C   -0.10602664019199     -0.10641859776556     -0.01661192811837
  H   0.94559367347592      3.11331111499569      0.77830098883381
  H   -1.15220281880804      3.15897602549564      0.41943472901124
  N   -3.43780642165433      2.89808738517578     -0.44212535392296
  H   -4.30306657630378      2.73304902094427     -0.92650625753672
  H   -2.98217781673631      3.74401742709224     -0.73717709353730
  H   -4.21670060464933      0.50182650829445     -0.61516048081757
  N   -3.49496771323137     -1.73468891189886      0.10296650894153
  H   -4.44664499980590     -1.52437536642573      0.34096675954382
  H   -3.16346896366651     -2.62815179860140      0.42647531580005
