32
Coordinates from ORCA-job ./opt_b97-3c_parallel
  N   -3.64867889649210     -3.52680628455808      0.38190477746987
  C   -2.96821507925390     -2.58756642415447      0.27371813041035
  C   -2.20120859631990     -1.41032106324044      0.13976186402340
  C   -0.81515405196463     -1.58082897916946      0.08342235708961
  C   0.26279283676954     -0.71172420934139      0.01962503071322
  C   1.52927474812519     -1.31641098496111     -0.07127740097788
  C   2.67523760580729     -0.56675297017398     -0.10274054773911
  C   2.61134915963958      0.88269517228001      0.05674599579999
  C   3.93548846215986      1.34859849215504      0.12047110779859
  C   4.79801300755152      0.25734280371937     -0.02185412352630
  C   4.04675411225597     -0.92447982498961     -0.15850099478948
  N   4.54703179906165     -2.20541250431910     -0.23394400629627
  H   5.50528365070195     -2.27394576405545     -0.53296564114221
  H   3.96332189944337     -2.87294483495124     -0.70970300484497
  H   5.87670222536198      0.30905149569665     -0.01892059002941
  H   4.26342137418409      2.37152756104887      0.22699292484883
  C   1.38651692854940      1.52269143055967      0.16015647420864
  N   1.33582327474255      2.89163287915818      0.30119039877965
  H   2.22129896336126      3.32919263715063      0.48486272528520
  H   0.61105151664534      3.25708156407002      0.89424519517463
  C   0.16883568511942      0.75908352788057      0.04707604367402
  C   -1.00805877126533      1.45703222733118     -0.09992463300426
  C   -2.36557955476766      1.08793864767850     -0.16944257568467
  C   -3.27907433999749      2.14504697606266     -0.36781046214492
  N   -4.07543705861328      2.98191420436919     -0.51950843834483
  C   -2.94284424540073     -0.19794954224483     -0.00500693421101
  N   -4.27966469878707     -0.29087166835810     -0.00348945245649
  H   -4.85292635721137      0.52669687397619     -0.12383193698234
  H   -4.73474543947132     -1.18364042903824      0.08110935470775
  H   -0.88869575296898      2.52458706177806     -0.22467632159671
  H   1.57473486119332     -2.39881026692608     -0.09477974510867
  H   -0.52707428895950     -2.62505730873349      0.10307860609568
