34
Coordinates from ORCA-job ./opt_b97-3c_parallel
  N   5.09645697265728      2.04872366723689     -1.21076711449539
  C   4.27533229406668      1.31943927407409     -0.82681329186880
  C   3.26670487246516      0.44482837088001     -0.35591366596932
  C   3.62737844590345     -0.86465713853171     -0.08324800231963
  C   2.84353389384676     -1.89739769536609      0.39756387450917
  C   1.45131541835121     -1.98735148399303      0.49105660122912
  N   0.97706956349831     -3.11590770187287      1.06643553879114
  H   -0.00716434776715     -3.33350916593810      0.99633951681321
  H   1.60778956788438     -3.87068265998334      1.26679558975494
  C   0.46809898990301     -1.00120872190602      0.07613096394304
  C   -0.83536188945616     -1.38545350183667     -0.22782406916345
  N   -1.20530148364791     -2.71791675933270     -0.48564480543766
  H   -0.56625749158743     -3.18514286445063     -1.11206123232747
  H   -2.14698841049342     -2.76127369410402     -0.86070870546597
  C   -1.86305604593613     -0.42253121998653     -0.22450884345985
  C   -1.58355055376736      0.94970549171767      0.11314289021683
  C   -2.84799964826494      1.60744096253172      0.05649937372918
  N   -3.82598691593695      0.74760800879042     -0.21475655048993
  C   -3.24131510541343     -0.48959812006362     -0.36355539659248
  N   -4.00881090069218     -1.64307903084085     -0.62024788088980
  H   -4.91682337490972     -1.36612976218413     -0.97048659252791
  H   -4.16867663298245     -2.17960054088337      0.22498194495425
  N   -3.06856624559712      2.96624223878475      0.27480608852389
  H   -4.05279242487812      3.17895122892647      0.18677082358742
  H   -2.54483648527791      3.55706807700987     -0.35786877472213
  C   -0.31111534670402      1.37085547963701      0.41556147276863
  N   -0.06953912600390      2.66020340755950      0.80871043147652
  H   0.73707660964281      2.80482132547246      1.39115352349281
  H   -0.88509215121439      3.16194131397255      1.12887364338342
  C   0.78932393373993      0.44136279308635      0.19024353887977
  C   2.00280309955111      1.02458913008762     -0.07045270126451
  H   2.00440661099432      2.10475857846920     -0.12407673394078
  H   3.38513973974885     -2.78272130754994      0.71030115711394
  H   4.67678752587726     -1.09955938991302     -0.21457705273239
