33
Coordinates from ORCA-job ./opt_b97-3c_parallel
  N   -4.92243186085691     -2.49469733877358     -0.31472794438386
  C   -4.02183937135507     -1.76573043517338     -0.18202643925253
  C   -2.98111952943166     -0.83133042202213     -0.03256114159940
  C   -3.32484941437453      0.54008236115582     -0.14643263120973
  N   -2.58280994603737      1.59623572535498      0.17409260863092
  C   -1.27177538802350      1.70132541700696      0.33839329576731
  N   -0.93971276012599      2.95020409564536      0.78731498357932
  H   -0.07230146117321      3.08617225575493      1.27659824660728
  H   -1.72215695516408      3.51405548135839      1.07021999203224
  C   -0.20885254579547      0.77111073346952      0.08918020619324
  C   1.11824707009278      1.22406424022653     -0.12379650532661
  N   1.44835115579256      2.54764473755690     -0.38763845915422
  H   2.29698712307246      2.63164210253560     -0.92788196762703
  H   0.70385838266215      3.10872482311209     -0.76899697104527
  C   2.18013029983759      0.31589080127052     -0.06052144514917
  C   1.93063624131537     -1.09762064803884      0.13621012939586
  C   3.22235052498988     -1.70898543197737      0.05004151851855
  N   4.17861633062522     -0.79445789094644     -0.13791744686960
  C   3.56427670988904      0.42508485418855     -0.19391063996012
  N   4.32203419666966      1.57321654377189     -0.39481270854649
  H   4.13623382327601      2.30122900565585      0.27975900792683
  H   5.30678906895795      1.35005909018848     -0.39877973362565
  N   3.52241854875643     -3.03445299366462      0.21061821193631
  H   4.43651544613650     -3.28908393607113     -0.12644572641267
  H   2.80506323293834     -3.68820234921259     -0.05264389953805
  C   0.65817007381516     -1.56235211894195      0.26127524348559
  C   -0.45143963264881     -0.68165761506499      0.20009763033921
  C   -1.67997745024280     -1.31574396165009      0.18069963122921
  H   -1.63209189988404     -2.39159583194760      0.28696829494142
  H   0.45521893471273     -2.62135941486350      0.36314179962858
  N   -4.57032060757674      0.85738383229290     -0.55888186775541
  H   -5.26881942555103      0.14599774396228     -0.68486236213151
  H   -4.86247367249847      1.81220357944062     -0.46163492522436
