32
Coordinates from ORCA-job ./opt_b97-3c_parallel
  N   6.15780609387239      0.43801098436868     -0.36035215646827
  C   4.99967154698426      0.44784640588668     -0.24047583608962
  C   3.60568450960363      0.39038647045539     -0.10840608727942
  C   2.71591817616506      1.48975629287098     -0.02743822472663
  C   1.42757925934778      0.96711853869595      0.06992964414292
  C   1.52299842393308     -0.49369275862745      0.05502142342600
  C   2.87933679984831     -0.83136051837488     -0.07285187792465
  N   3.43250205946658     -2.10476915526404     -0.07215969734845
  H   2.91084483525272     -2.77545347924293     -0.61477952858901
  H   4.40274538314798     -2.11618978813262     -0.34917322926613
  C   0.36957363345235     -1.25016188687313      0.13130068929543
  C   -0.90166313217189     -0.67427255015616      0.20117284582967
  C   -2.02794450039922     -1.55921195891392      0.32540501264975
  N   -1.76371233691598     -2.85373117484274      0.71058998641859
  H   -0.99642701616472     -2.98941228651583      1.34359510644396
  H   -2.56150120164895     -3.42555360911182      0.92374080018526
  C   -3.34344121703754     -1.28737688470197     -0.01052950314978
  C   -3.88179702778815     -0.06666177345865     -0.44720165067498
  N   -3.43019820449330      1.15700450238003     -0.23124004083111
  C   -2.23953901066676      1.50556298640172      0.23584059048847
  N   -2.21487881281037      2.78105095188639      0.70849411305655
  H   -3.10096044013662      3.25127242306422      0.75703494976052
  H   -1.50667429860760      3.05940049806731      1.36009041803207
  C   -1.00004008307651      0.78320409753756      0.18162777385816
  C   0.17286297593856      1.54419944597367      0.12659560700313
  H   0.09827063576742      2.62039307884656      0.05069224175731
  N   -5.11767031605245     -0.10616708314606     -1.03284163094370
  H   -5.44413869016297      0.76494146523710     -1.41364890402785
  H   -5.38188782055583     -0.93454338824381     -1.53400457618815
  H   -4.04233712451262     -2.11373436875446      0.04449766550809
  H   0.45304269104457     -2.32717688451230      0.07791825389496
  H   3.00465346357674      2.52714783120030     -0.05045676924326
