28
Coordinates from ORCA-job ./opt_b97-3c_parallel
  N   5.72055412035706      0.54429780343433     -0.11087632805221
  C   4.55813637897280      0.49554864566444     -0.07296099371502
  C   3.16369935827178      0.37084524681886     -0.03020975274848
  C   2.20772568152592      1.42849778945123     -0.14155120461274
  C   0.94935221580710      0.86468562462420     -0.07096777605450
  C   1.10911830570897     -0.58842130021836      0.08959400162399
  C   2.50298630741035     -0.86573836561237      0.10764943658405
  N   3.09755453070722     -2.08761708036767      0.30847794259885
  H   4.07603432589886     -2.12942004186781      0.07081122906542
  H   2.59095193669083     -2.88336616490747     -0.04176839016221
  C   0.00429016579389     -1.38594827896341      0.13805259873081
  C   -1.31099075357690     -0.86272490221480      0.04232987293302
  C   -2.30314381525818     -1.84409621612092     -0.02364477959432
  N   -3.61683416859477     -1.82744814957693     -0.23147024433711
  C   -4.33558837601431     -0.71406079533283     -0.28050863374407
  C   -4.01205332069303      0.61497315135067     -0.08816327443596
  C   -2.75802090326828      1.22842128025040      0.06827786054429
  N   -2.79990592757820      2.56702013944016      0.27083336851365
  H   -2.00400733940003      3.04974128452367      0.64136947221692
  H   -3.68820816195057      3.00810961767332      0.42106873089615
  C   -1.47225981327959      0.59823550170439     -0.02398247316428
  C   -0.33556667319332      1.39307752207641     -0.10716539747639
  H   -0.42262871317797      2.46202791103022     -0.24838950055554
  H   -4.86338104902919      1.28647189356372     -0.07113837886683
  H   -5.39242705285996     -0.89640629288061     -0.46244683791234
  H   -1.91921357648076     -2.85604341084721      0.08032427425510
  H   0.10441752699171     -2.46159700903452      0.22121721984913
  H   2.45598179581867      2.46981036563889     -0.26216530807929
