32
Coordinates from ORCA-job ./opt_b97-3c_parallel
  N   -3.60987303840164     -3.48184579101411      0.55065720586726
  C   -2.86944844937637     -2.60288335315791      0.36746921731169
  C   -2.02300272542638     -1.49149383024658      0.15375859888700
  C   -0.68501105306266     -1.77046246141930     -0.11197805503228
  C   0.44995267795600     -0.97520035638880     -0.18783514717940
  C   1.64979898348891     -1.71060620873331     -0.33359196264491
  C   2.87583508311715     -1.11641938291924     -0.21655394193241
  C   2.94908077307152      0.29492170228737      0.12855488321017
  C   4.29824947781779      0.60671139359100      0.30746439666439
  C   5.05035254568640     -0.56594490889858      0.05784168273576
  C   4.19927939778028     -1.61763888630374     -0.25164646199346
  H   4.48457619747380     -2.63509454551121     -0.46645752534011
  H   6.12717389697350     -0.62595484828890      0.10918163455739
  H   4.72870620307288      1.56377537821424      0.56266939302726
  C   1.77930560876401      1.05703340541391      0.22597938771716
  N   1.92516952039264      2.41625864615261      0.53814469995129
  H   1.25243995932730      2.75644785255775      1.20897120566635
  H   2.85745930559340      2.63263596954213      0.85010892955014
  C   0.51314366962665      0.47786228421288     -0.02700658922027
  C   -0.62269044657873      1.31440217214028     -0.31578857616291
  N   -0.37117663841518      2.54909317667169     -0.79111227146106
  H   -1.11471929110226      3.20896662718266     -0.93925181788626
  H   0.57868535838121      2.88704414595098     -0.82527626785060
  C   -2.00970652724342      1.00424129270983     -0.17299145835827
  C   -2.89277876296276      2.08249359984977     -0.37500307126847
  N   -3.62793287036544      2.97425485691544     -0.52865834344956
  C   -2.64664270825495     -0.21821791120797      0.16654773684732
  N   -3.96283440891926     -0.17904401768436      0.45010110879976
  H   -4.48260908060035     -1.03340030038495      0.55367963362829
  H   -4.48520818914826      0.67515380662116      0.36832664205665
  H   1.57697667254547     -2.77984723050140     -0.48550415807794
  H   -0.48521038700626     -2.82923093805631     -0.21108023492414
