35
Coordinates from ORCA-job ./opt_b97-3c_parallel
  N   -5.78788698827039     -0.49101643868987      0.39105721277215
  C   -4.62556032237850     -0.46422301951310      0.33633470152143
  C   -3.22829375172133     -0.37975228380854      0.25268256440637
  C   -2.29613363556980     -1.39977560458859      0.57569010093270
  C   -1.02138044090327     -0.88523537636516      0.34566948284638
  C   -1.16131942112820      0.47273473497692     -0.11968382181631
  C   -2.53439419465164      0.77267576350482     -0.17880807879489
  N   -3.08525460021291      2.02915910207573     -0.57435897780142
  H   -3.51765163039139      2.49692929600001      0.21488196654816
  H   -3.82510626982272      1.89166751157782     -1.25266538124170
  C   -0.03689073347122      1.27200655575461     -0.33925505421868
  N   -0.25533924884527      2.60254006831808     -0.66336032454858
  H   -1.23666588566850      2.78117272446083     -0.87552857919306
  H   0.37817703234642      2.98262994990053     -1.34917839726128
  C   1.26166229261221      0.73533322656990     -0.08906413217949
  C   2.30677227165688      1.59944724381127      0.34781669176471
  N   2.07771319151348      2.93693660816194      0.52464394837474
  H   1.12162871514204      3.26077234670963      0.57419974248654
  H   2.75119916848773      3.43754864104565      1.07551978675728
  C   3.63075892793845      1.21873422887106      0.67674597299631
  C   4.32206119129611      0.10807564105319      0.27833215816655
  C   3.86923985034155     -1.02087415197289     -0.38737439930100
  C   2.55248308299400     -1.42834737670204     -0.52616669546280
  N   2.33790371518048     -2.56168840045247     -1.25358168521108
  H   3.12953836318884     -3.15245723870019     -1.43939135368862
  H   1.45977736762650     -3.04269448809299     -1.11947953226768
  C   1.37813921963548     -0.74204728426993     -0.00185385401775
  C   0.24923847703082     -1.48995003641774      0.32541342886903
  N   0.31112724081585     -2.88381146443207      0.52029899029230
  H   -0.56561922215273     -3.25780223699699      0.84388212175913
  H   1.05286222380112     -3.16458850033883      1.14420887857380
  H   4.62710538149182     -1.68657489061093     -0.78413516999027
  H   5.38763590884161      0.13071200663812      0.48094577110220
  H   4.21843486495547      1.98629687400811      1.16665145173210
  H   -2.57321951950816     -2.38896777708564      0.90320240849329
