26
Coordinates from ORCA-job ./opt_b97-3c_parallel
  N   -0.86018746084684     -3.98988148499462      0.15990840048035
  C   -1.05711789975289     -2.84519880715655      0.12425582878036
  C   -1.31775518721458     -1.45024383762384      0.07372359965343
  C   -2.65883599445349     -1.12838952614022      0.14023034405432
  C   -3.27758612382583      0.11646764160949      0.08561180432179
  C   -2.66620356898969      1.35518978976745     -0.01190182277906
  N   -1.35456592628876      1.66097335419557      0.11127355443217
  C   -0.29060467602433      0.89795162738156      0.12070028351750
  C   0.92089865964951      1.66601522124367      0.25109923030278
  C   2.14169421209779      1.09547832177874      0.12384561537305
  C   2.24924012371159     -0.35216454425072     -0.11786021047165
  C   3.58623757185824     -0.64683802386189     -0.22549303375773
  C   4.32949689774559      0.58193253138436     -0.05537776645263
  C   3.47657060092349      1.63053367131151      0.15310116622687
  H   3.73827209379905      2.66383876465180      0.31071699252661
  H   5.40706658261212      0.64851102959379     -0.08987055555528
  H   4.01932107305462     -1.61864487207823     -0.40319197796692
  C   1.08378037722507     -1.12744385557320     -0.16467382009174
  C   -0.17252729465398     -0.58001104222169     -0.02913755493188
  H   1.17932773470914     -2.19810339869161     -0.28364855190679
  H   0.79028697683062      2.72954773168683      0.39234020381252
  N   -3.44186463679131      2.47789362364453     -0.14517401574791
  H   -4.35472049482035      2.39197451614503     -0.55345788560377
  H   -2.94186332049508      3.32464014933954     -0.35110724151087
  H   -4.36028202625732      0.11237255470270      0.12261779511641
  H   -3.33055811370238     -1.97119949554402      0.23050069247809
