29
Coordinates from ORCA-job ./opt_b97-3c_parallel
  N   5.91650151487132      0.55660394692367      0.05811111587887
  C   4.75318664011605      0.58432182755659      0.04225817360558
  C   3.35235414847037      0.53803348904274      0.01713438475281
  C   2.45771578932421      1.62929909865052      0.01454003013204
  C   1.16130383288614      1.11221793316323     -0.04700825827946
  C   1.25595495675121     -0.34027257618521     -0.05426006363021
  C   2.61625500134566     -0.67760059737733     -0.03167570629144
  N   3.14333045623576     -1.97667555288115     -0.03355659758331
  H   4.14068307344156     -1.97759702806053      0.13242597601403
  H   2.96858325474861     -2.46466014465515     -0.90268824961506
  C   0.11001267049233     -1.13355776721404      0.03353895785435
  N   0.24949465951115     -2.48927079811771      0.16869962244136
  H   -0.48137168658532     -2.97863586757109      0.65297610485773
  H   1.17798842943307     -2.78838878729177      0.43632734194174
  C   -1.17606897120536     -0.50920774007213     -0.04243170560056
  C   -2.28492039789618     -1.32144668440438     -0.24453854306991
  N   -3.59462183592831     -1.10567630493330     -0.25267070788447
  C   -4.17649493005612      0.07856425413335     -0.01880249557626
  N   -3.72396331298907      1.35445614437191      0.00541390488831
  C   -2.45270243540833      1.68683244193637     -0.02980875043236
  C   -1.25030307691297      0.95944464446307     -0.02986997860176
  C   -0.08331487336976      1.71863576930653     -0.03415417039302
  H   -0.15926931631802      2.79855365480179     -0.01566259431572
  H   -2.30751353119297      2.76501743828749     -0.04618707895791
  N   -5.50024523856487     -0.00285206370339      0.18632491006438
  H   -6.03039637083011      0.83948880773096      0.31206180838370
  H   -5.95329865007593     -0.89638633732970      0.13329662696488
  H   -2.06136751453094     -2.36128189787205     -0.46516552382826
  H   2.73940685173732      2.66828652970073      0.05045909967840
