33
Coordinates from ORCA-job ./opt_b97-3c_parallel
  N   -6.32659613083131     -0.14386308809647     -0.17127759984019
  C   -5.17978949249232      0.04486772982950     -0.11812751272579
  C   -3.78731430653784      0.20191931954481     -0.05021661375123
  C   -3.06791482307998      1.41314871958408     -0.03997930320757
  C   -1.71115497883101      1.08595050339701      0.06385263604255
  C   -1.59095058888942     -0.35980510470639      0.08625322507469
  C   -2.88248257735550     -0.89498761629337      0.01984744532212
  N   -3.20803568046636     -2.27284600133114      0.01078283216900
  H   -3.26325353270653     -2.65142046260862      0.94943193841394
  H   -4.10992601167809     -2.42864234364678     -0.42072070645443
  C   -0.33222454348167     -0.97018306412907      0.05036478595519
  N   -0.30484801674245     -2.36279521109865     -0.04584832385376
  H   0.38583975235800     -2.71647669757959     -0.69075360419615
  H   -1.22826808314233     -2.73294791821089     -0.26082109255966
  C   0.84944750739919     -0.18603714996596      0.10599333567825
  C   2.11507658388058     -0.83022354843438      0.34116598400665
  N   2.13490910876750     -2.00424935556390      0.99293716657736
  H   1.26755670984319     -2.47075070167827      1.21267779219184
  H   2.99136003076942     -2.52674221823279      1.07033601534893
  C   3.38161694635437     -0.35730723933742     -0.11940395793607
  C   4.46619880659167     -1.25597386919173     -0.05778898121363
  N   5.33189393888193     -2.03123045696122      0.01815988435595
  C   3.64646324287283      0.89661829802087     -0.68660899817135
  N   2.99024767788877      2.01519677389117     -0.57125843934263
  C   1.80942386857213      2.18010340922398      0.03851199029094
  N   1.66353556250046      3.41232122506179      0.56392198852495
  H   2.41393213056016      4.06859962867187      0.44010576551535
  H   0.93239414780670      3.62336722150443      1.21491249180209
  C   0.70413665665511      1.27359151607625      0.07229686319581
  C   -0.56191962281915      1.85505980819264      0.05892341984482
  H   -0.65045035186688      2.92631737849842     -0.05762757918073
  H   4.58054490076036      0.97734624512073     -1.23437328120361
  H   -3.49660276554160      2.39937971554876     -0.09922236987406
