31
Coordinates from ORCA-job ./opt_b97-3c_parallel
  N   -4.94992288502347     -2.05544264415829      0.40988735190250
  C   -4.04117725466061     -1.33265844619547      0.29400649919789
  C   -2.99273738497449     -0.40876283742265      0.13718677625152
  C   -3.36998474232375      0.96022259870794     -0.05530106851959
  N   -2.60390541563633      2.05364472994978     -0.12357038621183
  C   -1.28040108751648      2.08895581629225     -0.03977646960486
  C   -0.25868155763622      1.14137084893378     -0.00111432541659
  C   1.04400649059532      1.66922603340505      0.05655886225562
  C   2.13334025640556      0.84204782302949      0.09057471327429
  C   1.96383235375296     -0.60135919566047      0.03932785498110
  C   3.27162909606889     -1.11958262935503      0.04151687337791
  N   3.64365762898063     -2.45410926696983      0.00983731939606
  H   4.64705944445994     -2.55174280510766      0.06677827241263
  H   3.19800595039997     -3.01794047227791      0.71911516849539
  N   4.20173425916385     -0.13890421906203      0.04673538144559
  C   3.53966455325808      1.03698145785484      0.06583036911041
  N   4.22430854191940      2.21719974542124      0.13040157766181
  H   3.75498603230181      3.03175988114410     -0.22513372557107
  H   5.18895716950715      2.15137445530981     -0.14947224850835
  C   0.71055086045919     -1.16898374033784     -0.11657288593985
  N   0.60193878848736     -2.52648722138568     -0.30655776664760
  H   1.44400543018878     -2.96218393399544     -0.65103421431684
  H   -0.21088758823058     -2.84071680487547     -0.80745823085522
  C   -0.45380698642288     -0.32431322728114     -0.03456674494463
  C   -1.68563564175925     -0.92549032752863      0.07908926665971
  H   -1.67817703250998     -2.00257261030277      0.18228661877353
  H   1.15819398392323      2.74667909839019      0.06819422892971
  H   -0.91429963556398      3.11317106922695     -0.01220391892457
  N   -4.67855669903145      1.22977581221177     -0.17336748297171
  H   -5.38121083242185      0.51369251754167     -0.11385408268800
  H   -4.94746735946016      2.19341848939685     -0.25975263340743
