32
Coordinates from ORCA-job ./opt_b97-3c_parallel
  N   5.21723518667697      2.27922913937351      0.65034809927351
  C   4.35959289009504      1.52174650362311      0.43978739013954
  C   3.30858093252007      0.60843422088812      0.18645252210392
  C   3.63992120419096     -0.73652775833120      0.07408351978390
  C   2.82957606592502     -1.81079594322234     -0.21774508077278
  C   1.42792764818768     -1.90015376548565     -0.31833469902390
  N   0.98590500477581     -3.09761557454118     -0.75925749678436
  H   -0.00095622881566     -3.30247821811086     -0.80186355476410
  H   1.63783648040101     -3.83773048310247     -0.93980064714326
  C   0.44278801093859     -0.87986822349989     -0.04079268953611
  C   0.78175001240767      0.55968654337765     -0.14447826686586
  C   2.02394115490732      1.15332166651793     -0.02932114774737
  H   2.01227087784937      2.23379997976551     -0.09006387271893
  C   -0.28401148116496      1.49966403377052     -0.27365083766141
  C   -1.58106299175392      1.10907899346152     -0.20817934255649
  C   -1.91973446886936     -0.28017243451929      0.03219693981418
  C   -3.29988142342915     -0.30417027052043      0.15876045603286
  N   -4.11462241885340     -1.42109404153801      0.38859098836634
  H   -5.05649429636603     -1.11679383406281      0.59438677109382
  H   -4.15273988654397     -2.04247210490454     -0.40927240435167
  N   -3.84495003601482      0.95317944810739      0.05010705045932
  C   -2.84232481462326      1.80186724182117     -0.16028210942080
  N   -3.05254647896044      3.13746034862687     -0.37403814646548
  H   -3.95221716009235      3.46388047495824     -0.06051183969418
  H   -2.29755914090142      3.75337529282324     -0.12406011053659
  C   -0.90406324463172     -1.23483946029985      0.16753918392992
  N   -1.30562958757362     -2.54019900375224      0.49245373971296
  H   -0.70168758487670     -2.98116915859257      1.17022974300521
  H   -2.26236035224358     -2.55343490227140      0.82637918293871
  H   -0.01928133324999      2.54593205710500     -0.36162810112294
  H   3.35476112237686     -2.74002246218057     -0.40458581843144
  H   4.69385886561051     -0.96686324828335      0.17182129234495
