28
Coordinates from ORCA-job ./opt_b97-3c_parallel
  N   -1.21585887158267     -3.97961256268706      0.08079778098553
  C   -1.50092928916114     -2.85379886490415      0.06372651215092
  C   -1.89984145668125     -1.48945881894076      0.04347622603263
  C   -3.28973687121749     -1.32601146973060      0.09198754915249
  C   -4.04680595149305     -0.18570317103663      0.05679820399495
  C   -3.57734080469895      1.13704250257596     -0.04399612733559
  N   -2.32768861992134      1.58579728855770      0.00703049597388
  C   -1.15586589197291      0.96350331472000      0.04758594022645
  C   -0.06597370915025      1.85327165483043      0.12902597807600
  C   1.23057163491343      1.40645669145169      0.09410333929359
  N   2.37261198726650      2.13245072430245      0.13585539746224
  C   3.35955179967477      1.22657328435019      0.05059369900869
  N   4.64344876061384      1.57791095403682      0.06034165443702
  H   5.37141958521136      0.88912808901080      0.00051076553406
  H   4.88887382763215      2.54852135707378      0.13693151357142
  C   2.88451897769273     -0.14157615097134     -0.05174744459662
  C   3.70396955236964     -1.26222956999834     -0.15336477158718
  N   4.44783035112415     -2.15566356733114     -0.23606049618800
  C   1.49680275522833     -0.03222680016074     -0.02226925231167
  C   0.44926428265872     -0.93629320157615     -0.06910244381328
  C   -0.87374302448436     -0.51007054265464     -0.01215367259122
  H   0.66451527050164     -1.99360161050783     -0.12743741068794
  H   -0.28745111314699      2.90805106946746      0.17842648632544
  N   -4.49924622118662      2.12703191621852     -0.17762277722485
  H   -5.48216722788853      1.94268634965045     -0.22380343966039
  H   -4.17663119912623      3.07635498199388     -0.19737321288988
  H   -5.12093087131124     -0.32042022705402      0.09655097869350
  H   -3.84823282276423     -2.24992117388673      0.16047173356780
