26
Coordinates from ORCA-job ./opt_b97-3c_parallel
  N   -1.45536542969677     -3.95314044367999     -0.03171922057133
  C   -1.54377091238736     -2.79541268447843     -0.01593999372390
  C   -1.70181510189357     -1.38030490672683      0.00211724193931
  C   -3.04437695028411     -0.99273523671941      0.01036998323076
  C   -3.63012838485299      0.24954933951940      0.02651743828211
  C   -3.00136010175604      1.49765053896251      0.04014964178495
  N   -3.80083685269715      2.61174211567474      0.10336400376931
  H   -4.76600363830480      2.51793671144688     -0.15683150080547
  H   -3.39304517156605      3.49890918775616     -0.13118031170683
  C   -1.62005370699920      1.71750632095078      0.04216477469462
  C   -0.50379035584418      0.88491885216049      0.02383879067062
  N   0.64603195082366      1.60319971486578      0.02278940448448
  C   1.78503047843953      0.94137292337039      0.01116353271079
  N   3.02175322900862      1.45484012486150      0.00754012672603
  C   3.79082851928289      0.33466700403973     -0.00375063703878
  N   5.12002856201872      0.40845791782672     -0.01097156165066
  H   5.57084126458588      1.30407189812012     -0.00300037544935
  H   5.66472376850866     -0.43355900851646     -0.01475071517742
  N   3.16475642541537     -0.88734864112187     -0.00838065099972
  C   1.88045056542714     -0.53180780921995      0.00075503850142
  C   0.71563998605847     -1.26976297492899     -0.00079947762827
  C   -0.51078819801191     -0.60145278365406      0.00984484389574
  H   0.75415128731789     -2.34901999819255     -0.01095629036220
  H   -1.31901222417983      2.75822932264289      0.05961429750046
  H   -4.71370693125951      0.25654637457653      0.03449965507735
  H   -3.74168509985339     -1.81985637913606     -0.00085662295405
