31
Coordinates from ORCA-job ./opt_b97-3c_parallel
  N   4.86693990881374      2.22243882047594      0.04520337355290
  C   3.97222160509355      1.47329601939163      0.03245985327531
  C   2.94697349675448      0.50983514448363      0.01558196849202
  C   3.36654523829765     -0.85419873940276     -0.00793664820933
  C   2.52229931580616     -1.97619228869080     -0.02833135852993
  C   1.14270782829881     -2.03947135212587     -0.02864664950783
  C   0.13901110951281     -1.07250072444766     -0.01240137412091
  C   -1.19016079159482     -1.53251579718051     -0.01406782981424
  C   -2.26004617185741     -0.67352307922678     -0.00213482331930
  C   -2.01622731929987      0.77851748990667      0.00024126990752
  C   -3.28620909702296      1.41537518740692     -0.01047691911601
  N   -3.50601423909870      2.77723604900088      0.05622807894555
  H   -2.76716594682805      3.34177727481263     -0.32987691214234
  H   -4.40421370410671      3.07626370743563     -0.28650470718491
  C   -4.26540838779910      0.41648908940408     -0.00070365186120
  C   -3.65551717880637     -0.85704345433487      0.00977054126302
  N   -4.32558354421674     -2.06392125330194     -0.05556841891793
  H   -3.81129729473601     -2.84877041813092      0.30943242809842
  H   -5.26184863314923     -2.04491545495076      0.31460764371083
  H   -5.33220138165655      0.59095512823820     -0.00257963833201
  C   -0.73869329294663      1.25124547185099      0.01087702068348
  C   0.38495686170503      0.38254631196173      0.00679391486283
  C   1.62413441317902      0.99136594850826      0.01988205604653
  H   1.57977697210839      2.07428952765504      0.03681987696436
  H   -0.54451418057219      2.31794960487495      0.03248656510453
  H   -1.34787312970376     -2.60560288467496     -0.03495810782009
  H   0.76292416901625     -3.05633317523168     -0.04527550486278
  H   3.03178415230817     -2.93205516636070     -0.04477566979975
  N   4.69417486160644     -1.08919161024433     -0.01080384226204
  H   5.35700719418357     -0.33340524432926      0.00212422773569
  H   5.04765286851100     -2.02655332017339     -0.02784114544234
