26
Coordinates from ORCA-job ./opt_b97-3c_parallel
  N   -2.80192392846865     -3.51855501780524     -0.00684030034254
  C   -2.49299128632450     -2.40049653347548      0.03667585551451
  C   -2.17266712860109     -1.01399692586451      0.09096063754151
  C   -3.29433434980373     -0.20049277751360      0.44391174672647
  C   -3.41552104966608      1.14109258023642      0.39094118187274
  C   -2.41739067051912      2.05876525715808     -0.09108457217722
  N   -1.13588308126712      1.86935952349300     -0.18498721807270
  C   -0.36409859071241      0.77532149543852     -0.02030885416628
  N   0.92129768671596      1.04122972657179      0.11519910913767
  C   1.80156140860766      0.03556737757650      0.07649315837361
  C   1.43251007133682     -1.35746677400818     -0.22838625093624
  C   2.63729801615154     -2.13285039584124     -0.28682730103172
  C   3.67188843640428     -1.28878176732198     -0.01521787293569
  C   3.18036042354188      0.06818819829274      0.21348355858898
  C   3.98231497287532      1.17568740100251      0.49927919765050
  N   4.67661910448946      2.07926724033960      0.73527909596041
  H   4.71664564661326     -1.55312555229143      0.03116642952602
  H   2.70077829561789     -3.18868383520155     -0.49133677447843
  C   0.11595155388978     -1.66014494215668     -0.33457633139102
  C   -0.85408721040698     -0.63425940744132     -0.12529182358911
  H   -0.21448705443804     -2.67623491680326     -0.50124879107041
  N   -2.86176209058089      3.31294695524946     -0.39102939744196
  H   -3.82397007705083      3.46222166560057     -0.63310444198582
  H   -2.18672723782836      3.93433218786885     -0.80323653480203
  H   -4.36115051707097      1.56719607673796      0.70359475339958
  H   -4.16447089110508     -0.75222836114152      0.77363815292918
