27
Coordinates from ORCA-job ./opt_b97-3c_parallel
  N   -1.05484101314924     -3.67373281228109      0.05246343543800
  C   -1.00029329691276     -2.51242117722575      0.01826283181780
  C   -1.17999963735313     -1.10492318323036     -0.00657805340650
  C   -2.52641116976703     -0.69076991328293     -0.02444423247273
  C   -3.00263579579984      0.63265681794699     -0.03142603611693
  C   -2.32285421047257      1.82714606946725      0.02328482837668
  N   -3.05862687231909      2.99473249061771      0.08741367177709
  H   -2.60360707065029      3.83551638237659     -0.22210025753211
  H   -4.02153897336555      2.94416222954407     -0.19605378230799
  C   -0.91862879780492      2.00398908629663      0.07046942516869
  C   0.12765047491739      1.11813061271107      0.04108770170308
  C   1.43298179706039      1.70670287811636      0.07393986869156
  C   2.52511378691814      0.91078193856640      0.03657254887411
  C   2.33112433206512     -0.54880084958565     -0.03583073652266
  C   3.60052793121970     -1.07874861788534     -0.06942724524987
  C   4.47240710572311      0.05508572222013     -0.01539896657343
  N   3.86050666591857      1.23692602661390      0.04751178514836
  H   5.55412890494136      0.00999147505298     -0.02198707996855
  H   3.88180150434901     -2.11687516005033     -0.12322171639303
  N   1.12020400292159     -1.12732913985448     -0.05790168380559
  C   0.04094805223432     -0.36030473206082     -0.02135053733059
  H   1.52778097225503      2.78402297373630      0.12190348951700
  H   -0.61472054805890      3.04361108594820      0.13743006864820
  H   -4.08278812054343      0.71808457690244     -0.08464959752512
  N   -3.49817550727940     -1.65402208940226     -0.09882398576108
  H   -4.42326640190893     -1.41220484194366      0.20468146637560
  H   -3.23369061633865     -2.61173241211439      0.06182764592999
