31
Coordinates from ORCA-job ./opt_b97-3c_parallel
  N   -6.63180006495601     -0.82510790039871      0.31241595952811
  C   -5.48680240754678     -0.63549023064186      0.25096611155953
  C   -4.10091975424129     -0.40754812111623      0.17487695459644
  C   -3.50092147532620      0.82445936746721     -0.14143407287206
  C   -2.10991294258264      0.63170124611929     -0.10578792844937
  C   -1.86396477388120     -0.76031464334056      0.21929806664902
  C   -3.09631028099693     -1.38454933032610      0.39191087391293
  H   -3.27439771670017     -2.42201125547014      0.62195045580231
  C   -0.56275660043484     -1.26273596060546      0.19344939848775
  C   0.52036179928877     -0.43116819491168     -0.01911882630454
  C   1.80384714267013     -1.02120238264646     -0.29307805868304
  N   1.79782648238812     -2.30642541726780     -0.70954376097714
  H   0.96446822565175     -2.68943473481163     -1.11325837307313
  H   2.66183218066530     -2.77327752378032     -0.92592390942970
  C   3.06527989623920     -0.40991220537880     -0.14992963444200
  C   4.19068160307236     -1.17146699808335     -0.51332074874116
  N   5.12423449892912     -1.80650892494874     -0.80383781299897
  C   3.33031614714105      0.85474278091194      0.47703481764623
  N   2.52696557335150      1.89914641040278      0.61914987961218
  C   1.25901362233380      1.96788942119103      0.23379219136001
  C   0.30569930086604      1.01497598121882     -0.09551432085927
  C   -1.03755893908357      1.49840629234145     -0.30307833608737
  N   -1.26271426841326      2.81446598402791     -0.59043454125334
  H   -2.21374991090566      3.07513065552486     -0.77784114789152
  H   -0.59354452923264      3.29887604190822     -1.16012098772156
  H   0.88709846560493      2.98429856575404      0.29960604023019
  N   4.57703445967699      1.06164690420474      0.94183906672910
  H   5.30286986494606      0.37239849819712      0.86857767823281
  H   4.80411393370917      1.98570304844798      1.26206232570969
  H   -0.41450572376909     -2.32130754727284      0.35891349268941
  H   -4.04677187866346      1.73297574348364     -0.33883620226182
