31
Coordinates from ORCA-job ./opt_b97-3c_parallel
  N   -0.31674581429744     -4.26619053748913      1.33068151034633
  C   -0.67719908155409     -3.26528652637414      0.86448883815846
  C   -1.22642796355769     -2.03607354699997      0.40896165892290
  C   -2.61854448419117     -1.99643972191109      0.51781182657858
  C   -3.50836583266275     -1.01373752849655      0.17526511378280
  C   -3.24743433748825      0.28805238819992     -0.26612185156293
  N   -4.29971230679126      1.00064915710185     -0.72624131435721
  H   -4.21859247907870      1.97540389469012     -0.95691077797187
  H   -5.21549564776409      0.59454388540096     -0.73940527577942
  C   -1.97299307265692      0.93487770482316     -0.18378957235514
  C   -2.03472279090740      2.29075838117256     -0.59856323477632
  N   -2.24041122027886      3.33646320942325     -1.06261374678571
  C   -0.69830193457515      0.41815155171690      0.13714293544600
  C   0.34109242685168      1.34746029331681      0.44626080909664
  C   0.06899495737768      2.61868264309694      1.00123230380261
  N   -0.11272788996927      3.62699692958510      1.54692473891068
  C   1.66959532827438      0.99594084443084      0.22658144003826
  C   1.99546925499528     -0.34321730733388     -0.29592303705564
  C   3.34888973120434     -0.34036274707305     -0.50979081035933
  C   3.77273046909552      0.96387860543141     -0.08573265536940
  N   2.75802060828902      1.75531108205369      0.36105915694037
  N   5.01646197052985      1.43227956943907     -0.09229741335072
  H   5.78771251038631      0.88570449518287     -0.42700517523391
  H   5.18804447870554      2.36474502407773      0.24250826800903
  H   3.96673101953826     -1.14575204089703     -0.86902394460510
  C   0.98966178156086     -1.32395727040263     -0.35234313968412
  C   1.37211014976576     -2.60507648363113     -0.80872664552935
  N   1.77566210346177     -3.58703614803919     -1.28020511067806
  C   -0.33082939890811     -1.00525826477535      0.01044184716987
  H   -4.55482298772479     -1.28404610625042      0.24320894103476
  H   -3.06362680263051     -2.91128001127077      0.88435316001693
