26
Coordinates from ORCA-job ./opt_b97-3c_parallel
  N   -1.18983918591075     -3.91597006989981      0.03004530242006
  C   -1.28731279610387     -2.75963162183469      0.01332320014107
  C   -1.58520427023900     -1.36528076467269     -0.00589968587264
  C   -2.95636938370486     -1.08426402246112     -0.01517144161521
  C   -3.63135390981432      0.10854592045548     -0.02787326162405
  C   -3.10442088258828      1.40703772550191     -0.03598048888808
  N   -4.00345701240337      2.44988141605898     -0.09769721190267
  H   -3.67633758067593      3.36024917904089      0.17343167669320
  H   -4.94701843583707      2.26215986818745      0.19139886661132
  C   -1.74903283403904      1.73590708567117     -0.04181468357642
  C   -0.57326309136289      0.98550190493876     -0.03154282650875
  C   0.62521074001368      1.72919668598359     -0.03757750763278
  C   1.82613143402591      1.06913622180904     -0.02719023975328
  N   3.09737481127067      1.49516807233830     -0.02971732235767
  C   3.78255269747051      0.31863158204853     -0.01331037381753
  N   5.11408821488650      0.29396294692536     -0.00945589554160
  H   5.63009046947719      1.15353154950487     -0.02618041405708
  H   5.59475064753110     -0.58601413060928     -0.00370859016847
  N   3.06880463132572     -0.85031794265731      0.00038828227347
  C   1.81423109980843     -0.40725285695641     -0.00824492807218
  N   0.70590468060967     -1.13604511774130     -0.00165028496910
  C   -0.46717960022093     -0.49529192281923     -0.01321901229499
  H   0.58541697593807      2.81034630855271     -0.05167666810612
  H   -1.56367727531367      2.80561984131892     -0.05996115305574
  H   -4.71249065870906      0.03361053876188     -0.03736859347343
  H   -3.58541946623440     -1.96405477234609     -0.00663526635132
