39
Coordinates from ORCA-job ./opt_b97-3c_parallel
  N   -4.22291261183715     -3.35902146146473     -1.48378292821922
  C   -3.58849281368596     -2.49220548550269     -1.03272265722403
  C   -2.87502872762392     -1.41209718716037     -0.47530864544275
  C   -1.54427206397099     -1.66219190437668     -0.07904206606712
  C   -0.51075948774778     -0.80880709213431      0.20764073394099
  C   -0.54754780502682      0.65814571468789      0.02220458776292
  C   -1.72074212199013      1.39900761137928      0.35569010577525
  N   -1.55960108052194      2.70830762528900      0.68993573947466
  H   -2.35197766278279      3.23227637898434      1.01977698858367
  H   -0.65652266685920      3.03231656079220      0.98648372986184
  C   -3.06471896938204      0.93756486693671      0.39760958973256
  C   -4.01518552272668      1.83037197817496      0.92213207179072
  N   -4.80551323363665      2.58105657941487      1.33967166408558
  C   -3.60706883490575     -0.24341750489251     -0.20333886295168
  N   -4.92736214032788     -0.24336616750942     -0.46580094994723
  H   -5.38709357033563     -1.08840121880374     -0.75802608473955
  H   -5.50182691372404      0.54547366555982     -0.22885244434672
  C   0.65493672348157      1.31433560481724     -0.32578752978091
  N   0.71635790165442      2.63996911315817     -0.74394613274845
  H   1.50245464166039      2.81369303812810     -1.35358202970108
  H   -0.13930296242531      2.99929076475473     -1.13571200174275
  C   1.87556101163328      0.62847027430660     -0.22196544357044
  C   1.91900097694303     -0.75706303857628      0.19602203161959
  C   3.26915086179067     -1.16331934210968      0.23274170781744
  N   3.72714974016929     -2.43896141173764      0.55216897233495
  H   4.73558945944797     -2.49453004828597      0.57419534173281
  H   3.37307763754735     -3.15626782286328     -0.06645917105540
  C   4.05699719314138     -0.03994252540609     -0.09287247365570
  C   5.45146289657985     -0.01145668743427     -0.14772441938097
  N   6.61557521650792      0.01656000994661     -0.19222373017939
  C   3.19586241578918      1.07119256638155     -0.35588307142321
  N   3.63224075316547      2.34605916280366     -0.69856805499977
  H   4.63838118366196      2.42828591621427     -0.70218474724243
  H   3.23288333883903      3.07932191172579     -0.13040632562551
  C   0.75514929703178     -1.43975983591508      0.49842295627574
  N   0.79917957565486     -2.72296045253619      0.97038192164261
  H   0.02405611515834     -3.01293805736595      1.54097929310599
  H   1.69505301977095     -3.01317726059878      1.33491448059659
  H   -1.28852570121099     -2.71332651888097     -0.10328477678838
