29
Coordinates from ORCA-job ./opt_b97-3c_parallel
  N   -1.00389974654535     -3.33369125949547      1.20007096429040
  C   -1.05626577637188     -2.27530435852756      0.71781859033834
  C   -1.27552975873820     -0.97401823874237      0.21522590081557
  C   -2.62990583920259     -0.66639139561122      0.00006610086697
  C   -3.15813869096044      0.59750868481288     -0.34247772171492
  C   -2.58292538774505      1.83612748409249     -0.20985388080724
  C   -1.25373909169012      2.10572893193078      0.21942089410206
  C   -0.14685020457387      1.30092319517131      0.27777154902542
  C   1.08778326588847      1.99790009468425      0.53534627859508
  C   2.27467467312551      1.38407588350479      0.34863924345228
  C   2.32526875724495      0.00229556034592     -0.11961675490279
  C   3.65419635143712     -0.27175468783966     -0.30463015490463
  C   4.34334879540899      0.93842891488679      0.07524307456929
  N   3.54987706607911      1.92147334378473      0.45753065389843
  H   5.41688118980045      1.07491479309099      0.06343159529009
  H   4.09923374631498     -1.19044475545129     -0.64966991030446
  C   1.11770303800404     -0.72968156847645     -0.27137282913259
  C   1.22540449847515     -2.04656281866802     -0.77533551577579
  N   1.39595772789691     -3.08567590568176     -1.26564110336409
  C   -0.11482003189085     -0.14179261968595      0.01086833353778
  H   1.05212308348295      3.04751636587279      0.79406908302422
  H   -1.07024310963928      3.14908972481830      0.44813690060535
  N   -3.35625632630272      2.95690932096953     -0.42548670018008
  H   -2.87597581890048      3.79878963241414     -0.69110937864361
  H   -4.22344166401045      2.82694087632755     -0.91674349289973
  H   -4.19508642154998      0.58499621232148     -0.65947962008719
  N   -3.55014994638322     -1.67484301676806      0.06116577569138
  H   -4.49963905660284     -1.43703840750339      0.28203184229406
  H   -3.25124294375153     -2.57777131257787      0.39041802852059
