27
Coordinates from ORCA-job ./opt_b97-3c_parallel
  N   -6.65402867286084     -0.45817699748648     -0.01542080347138
  C   -5.49901766201599     -0.33566502333220     -0.01246513245563
  C   -4.09870516876219     -0.18655567799678     -0.00878364078174
  C   -3.17216821379777     -1.25268403586239     -0.00796436407321
  C   -1.89345495005926     -0.68990359251894     -0.00409555776491
  C   -2.04952091397459      0.77091816661292     -0.00248760932933
  C   -3.41837511783680      1.05091103848788     -0.00543991779719
  H   -3.88593009077766      2.02129708329935     -0.00523793343383
  C   -0.92671479742825      1.57275620680326      0.00130383842559
  C   0.36405009011659      1.02543615153418      0.00338120947614
  C   1.41740703540856      1.95123147283472      0.00705678619534
  N   2.73161522438179      1.86728277044143      0.00896023007773
  C   3.47613260041964      0.75592328339456      0.00870274156964
  N   4.79216739211220      1.00304709267170      0.00976117960072
  H   5.48083262038530      0.27073533259369      0.00927704325256
  H   5.08513305712057      1.96411634097833      0.01066686248062
  C   3.05501994255850     -0.61857925176404      0.00752993549758
  C   4.08648087425441     -1.58554272610707      0.00911959734004
  N   4.98290852201369     -2.32712023773596      0.01005222337799
  C   1.74894015069480     -1.08702632876274      0.00429436235567
  C   0.52029141255576     -0.42991495315313      0.00194608040242
  C   -0.62674699582763     -1.23757588783703     -0.00169985629209
  H   -0.50278611144751     -2.31352442991089     -0.00262642168981
  H   1.67649907821693     -2.16788079500264      0.00338896308848
  H   1.08173364770655      2.98581691417832      0.00846306579314
  H   -1.03229719994729      2.65069889473459      0.00260759784522
  H   -3.42415651810959     -2.29991549309466     -0.00999211358972
