31
Coordinates from ORCA-job ./opt_b97-3c_parallel
  N   -6.19982200189730     -0.17088834623757      0.43910509382557
  C   -5.04378403841454     -0.09825545019609      0.33747433257931
  C   -3.64577054131184     -0.01652391147301      0.21732853614693
  C   -2.74123323111980     -1.09092098881604      0.44186144676570
  C   -1.45636700509131     -0.61027882390874      0.21830566463339
  C   -1.56150410399357      0.78433427508754     -0.14334180488410
  C   -2.92528640970386      1.12858091661570     -0.14977052394049
  H   -3.36955367314835      2.08330974191545     -0.37981178378659
  C   -0.41422156194941      1.54981960522895     -0.36045007012917
  N   -0.54245490535694      2.85158896205820     -0.73123965222000
  H   0.26159351221427      3.43080788573895     -0.87215422480642
  H   -1.39216959538986      3.33400804180604     -0.50300230512797
  C   0.86798526475869      0.93022018552083     -0.16118424407409
  C   1.94938186413535      1.75932562132978      0.10236255837116
  N   3.19834688254016      1.51762385833309      0.48390983809207
  C   3.77345661232372      0.31800447846102      0.41240751844227
  N   3.42090319939188     -0.79839443320980     -0.24391728105111
  C   2.18231532969555     -1.16678574103034     -0.49735414683959
  N   2.07829132096927     -2.26521312969844     -1.27020693943174
  H   1.18701670615216     -2.72064801361608     -1.38035228688304
  H   2.91930724741775     -2.77927256076722     -1.46455602059695
  C   0.94074258318478     -0.53120221847736     -0.07443642222569
  C   -0.20592950974402     -1.26974619457485      0.16655668870906
  N   -0.18949983853846     -2.66663165665187      0.27154827632723
  H   -1.07200254218870     -3.04171743526603      0.57665643453329
  H   0.55773042931461     -3.02772948446347      0.84426016891246
  N   4.97243629157261      0.23536754684569      1.03403165429893
  H   5.39451416192879      1.08980226878771      1.34861104056036
  H   5.55726406273240     -0.55618650244835      0.84091299124073
  H   1.74447688766265      2.82490152360149      0.10700460429211
  H   -3.04786492134633     -2.08815818559510      0.71440815816675
