24
Coordinates from ORCA-job ./opt_b97-3c_parallel
  N   0.90495194547935      3.93479699305507      0.12969352893597
  C   1.02633321223006      2.78254652873112      0.06275851919895
  C   1.24655599193787      1.37746450793391     -0.02314929221405
  C   2.59701298258918      1.05546167142799     -0.34440312326933
  C   3.21644840210856     -0.14459239106857     -0.30656097229410
  C   2.62063421546205     -1.38522182223194      0.08989814065133
  N   1.35446708422138     -1.69628239627824      0.10161211137432
  C   0.23364284859579     -0.96576823539636     -0.02370088349792
  N   -0.85363145763926     -1.69157712266112     -0.21654423236105
  C   -2.04797350682589     -1.08247452653001     -0.15755164960736
  C   -2.22157848284810      0.33767525263854      0.22551244099535
  N   -3.54545580456631      0.67568995148897      0.30084380081837
  C   -4.17759685977572     -0.45122625901231     -0.03533436182943
  C   -3.32505509062833     -1.56296203272811     -0.32755907100837
  H   -3.62525792218638     -2.55895506661184     -0.60546306692761
  H   -5.25951508893699     -0.46947136468276     -0.06699864977084
  C   -1.11820733186083      1.11337681584707      0.37827605534586
  C   0.15713786448887      0.52975183245789      0.15325045009871
  H   -1.20953694588821      2.17088666948966      0.58319255645694
  N   3.47538837055171     -2.37995826895073      0.45691265213621
  H   4.46022486831145     -2.30237682071512      0.28561433518162
  H   3.08783133683610     -3.30378115131093      0.53746125310753
  H   4.26965532975981     -0.16226708030229     -0.56101176441940
  H   3.20918578748389      1.90388366570995     -0.61910132080138
