23
Coordinates from ORCA-job ./opt_b97-3c_parallel
  N   0.77553820775861      3.89844368471130     -0.25744649435141
  C   0.88152391981532      2.74675579378689     -0.16584143392058
  C   1.18171354199718      1.36092683125618     -0.03012310635822
  C   2.53495393864816      1.09528423893446      0.31512294790718
  C   3.19127345941474     -0.08803544018070      0.33364356026191
  C   2.64197804790553     -1.36114401751300     -0.02073013714543
  N   1.38395005560298     -1.71455633325332     -0.01572179628792
  C   0.25213318462680     -1.00841868149113      0.06997928018194
  N   -0.83308769982473     -1.74110652301031      0.31247557541433
  C   -2.00922815868721     -1.12261015281389      0.20613036047030
  C   -2.12044201117068      0.29413209638945     -0.27775605922474
  N   -3.41379218022899      0.65604523189765     -0.44814847274984
  C   -4.09616710050993     -0.43602391982022     -0.06608240959316
  C   -3.30840412666030     -1.55078235045615      0.34325115970648
  H   -3.66278307808650     -2.51619337494219      0.66169249819463
  H   -5.17824701572781     -0.41736555320356     -0.08939426418254
  N   -1.06818495020979      1.04596188005965     -0.45376862308439
  C   0.12942436109363      0.46253143367117     -0.18775851779755
  N   3.53277093952263     -2.35750224973849     -0.27612976707651
  H   3.15141137242067     -3.23548795902907     -0.58351588934463
  H   4.47090228012578     -2.13919673931626     -0.55615950859786
  H   4.23745574883284     -0.07029972795378      0.61376973355049
  H   3.11690153444105      1.97240619881557      0.56314476882724
