32
Coordinates from ORCA-job ./opt_b97-3c_parallel
  N   -5.25291026049325     -1.63171913531042      0.54813470207756
  C   -4.30805008994387     -0.99357770536718      0.30331547512687
  C   -3.13489291726940     -0.26743058305171      0.02308643650868
  C   -3.31183272975663      1.02250711658446     -0.55552149543007
  C   -2.45524405688766      2.06381544486735     -0.59439779191657
  C   -1.12779071940436      2.15129259470886     -0.06544953168946
  N   -0.71095465662188      3.46172276280794      0.13127422966647
  H   -1.46603361621901      4.12109189828509      0.21156663476946
  H   -0.02725798280138      3.60792300875161      0.85307333376985
  C   -0.23832908738160      1.08667677884851      0.10339517964125
  C   1.14687162949510      1.41110300829793      0.21592998283212
  C   2.11698238729577      0.46693414887320      0.11801371184515
  C   1.77391487200747     -0.92778482154243     -0.09550199607663
  C   2.99397611818642     -1.58451616480416     -0.24028810634324
  N   3.24485589194878     -2.92302318037691     -0.41887681552773
  H   2.54621028451624     -3.43121996403445     -0.93456546070833
  H   4.17884137296611     -3.10972793274568     -0.74683207204846
  N   4.05443552060037     -0.71632380958913     -0.12448687688674
  C   3.55506560432207      0.49813779767415      0.08030609925625
  N   4.36183386140701      1.58366824421551      0.29887300376778
  H   3.99587321469788      2.47232433423848      0.00107822727029
  H   5.31727087908845      1.43762759754471      0.01455733088556
  C   0.43348645361504     -1.28544809325215     -0.08419164373329
  C   -0.58693440349727     -0.35052987021751      0.05462716287455
  C   -1.91008822571439     -0.88291902984565      0.31450867874535
  N   -1.95931360657345     -2.14394354465154      0.81938981597099
  H   -2.85652752884376     -2.53764394889332      1.05017625137243
  H   -1.18137478296182     -2.47428061215405      1.35861257253789
  H   0.16661506933573     -2.32744065148012     -0.20073448214981
  H   1.44119272536485      2.45029095772129      0.26427619295545
  H   -2.83780856604183      2.98314361817151     -1.02266431554469
  H   -4.30675833073806      1.21172960782501     -0.93956042301721
