32
Coordinates from ORCA-job ./opt_b97-3c_parallel
  N   4.33950341441000      2.98426691004250      0.28093988417171
  C   3.47970671404244      2.20327667826659      0.19599244742314
  C   2.48777251557251      1.20386040835528      0.09217807807707
  C   1.16448944961873      1.65323131036489      0.02324901702306
  C   -0.06859591417402      1.02229034221634     -0.02340365994624
  C   -1.18575853952848      1.87132762601201     -0.11333998451630
  C   -2.46349243126987      1.37031588639409     -0.14669025382199
  C   -2.68596057262771     -0.06512209717344     -0.05076425385388
  C   -4.07952105856682     -0.26990053691235     -0.05662999327231
  N   -4.70798275864554     -1.52169867405665      0.01370244844845
  H   -5.71240274610283     -1.44461090308529      0.07009370027379
  H   -4.47409909059428     -2.12358998084120     -0.76475539559307
  C   -4.70170892969671      0.99508503559754     -0.11990619217593
  C   -3.72838806198655      1.99167817848936     -0.16837342520207
  H   -3.90829739903701      3.05361723224503     -0.22160693591509
  H   -5.77011053109815      1.15461690368773     -0.14308294204838
  C   -1.62170361536407     -0.93506445263398      0.15133615036814
  N   -1.87498688072685     -2.25929586618782      0.40923470160402
  H   -1.20189120444686     -2.74461778249245      0.97606618903378
  H   -2.82706944678843     -2.44892356616149      0.69054934928179
  C   -0.27383796910199     -0.43651822296353      0.04962021590115
  C   0.73760630918752     -1.36514819012157     -0.04986743288549
  C   2.13895205969511     -1.28515434016324     -0.12212490704633
  C   2.81648406192342     -2.51353724120394     -0.27620505866904
  N   3.42222742078698     -3.50203035068732     -0.39137946691685
  C   2.96724419965989     -0.13534115054578     -0.00294090048071
  N   4.29420314262580     -0.32051216044196      0.00501427699600
  H   4.92381235410095      0.46158266924232      0.06332186225228
  H   4.68669249317116     -1.24269603731950     -0.07842664339016
  H   0.40470500920707     -2.39125139472733     -0.13303220148283
  H   -1.02263078674991      2.94133628853323     -0.14332713213864
  H   1.09577468070447      2.73416657937096      0.01175355750069
