26
Coordinates from ORCA-job ./opt_b97-3c_parallel
  N   -3.95475669110500     -2.66965220703582     -0.00196108830522
  C   -3.53170085041552     -1.58620514462585     -0.00127800905896
  C   -3.06323904235483     -0.26848975554257     -0.00040795773566
  C   -1.74406019507607      0.16539725772782     -0.00012627963066
  C   -1.77396221196269      1.64824873450200      0.00082119524832
  C   -3.13446836619575      2.05548807616190      0.00112745476581
  C   -3.89854129170554      0.91523690102425      0.00038418293486
  H   -4.97682267767896      0.87559669832761      0.00036166166740
  H   -3.49562345984967      3.07049869326677      0.00179273130090
  C   -0.58416137921910      2.30563497940712      0.00100152012357
  C   0.63301277390905      1.57283558925159      0.00033990024073
  C   1.80289422906747      2.29962760662350     -0.00024108092756
  C   3.14408354791233      1.87987128090356     -0.00137151963422
  N   3.69511288127611      0.69868410162741     -0.00097677857853
  C   3.06777559065808     -0.49717762605854      0.00047357593150
  N   3.93897448638081     -1.52794171675828      0.00213865334064
  H   4.91721499693326     -1.30762421015521      0.00088946743666
  H   3.64190983555389     -2.48680674202895      0.00221980960999
  C   1.67444725333594     -0.77481901200121      0.00013536170472
  C   1.35863392251439     -2.15756277304679      0.00036837002903
  N   1.30192407805946     -3.31856226944316      0.00076365977990
  C   0.54726052154307      0.09311857187143     -0.00017569032641
  N   -0.61649717089364     -0.54436748626591     -0.00050399905947
  H   3.86847213751742      2.68977921402861     -0.00267266358492
  H   1.68378972329277      3.37707606142835     -0.00014112558221
  H   -0.53524912819727      3.38739298671042      0.00145215700979
