27
Coordinates from ORCA-job ./opt_b97-3c_parallel
  N   1.07082004716235      3.47492252870872      0.79786242567760
  C   1.10018759055094      2.35644191395544      0.47798100968981
  C   1.29223735537621      0.98883765650600      0.18452830470927
  C   2.65398643790925      0.57532434615774      0.23579350824965
  C   3.12036960115968     -0.70134791508035     -0.09746018903022
  C   2.36488903735728     -1.84373754841838     -0.30409819401172
  N   1.11403003139120     -2.07570942089479      0.13502380135969
  C   0.12656629236531     -1.24932441907743      0.29449842253353
  N   -1.01597145009603     -1.86706426774420      0.76313250142782
  C   -2.13673634960865     -1.26030773573913      0.54617566766448
  N   -3.38425741795574     -1.77406383254762      0.85853918868240
  C   -4.22338924712251     -0.89055466919660      0.35544366180735
  C   -3.60746195646110      0.24245115940123     -0.30521540015765
  C   -2.26715754546443      0.03849097714951     -0.16851827896660
  C   -1.08633241438913      0.76228537589710     -0.42834994884372
  C   -1.19058256606812      2.02504188773075     -1.05092128996791
  N   -1.34891680619865      3.01751532851251     -1.63352910883880
  C   0.13775200198637      0.19357970844915     -0.05440258073426
  H   -4.11430832920170      1.07329642954270     -0.76712564191601
  H   -5.29123510815013     -1.03977630076354      0.45336644825748
  N   2.92061673999639     -2.92802656146874     -0.90199807394233
  H   3.89420145217693     -2.93655011299977     -1.14247792035251
  H   2.46667166051466     -3.81303844203975     -0.76035153683743
  H   4.19477655028426     -0.80944925728103     -0.18989514639605
  N   3.58634414100227      1.49484841348536      0.58512984721430
  H   3.34248228953817      2.46593685603600      0.67343223513601
  H   4.56057886924481      1.27427895811944      0.50956063848538
