24
Coordinates from ORCA-job ./opt_b97-3c_parallel
  N   -5.71732667744064     -0.10540313393790      0.06463216682287
  C   -4.55715258141055     -0.11139316449292      0.04345391110610
  C   -3.13619693013554     -0.12683660912921      0.01287214055805
  C   -2.53632780323530     -1.38281389626204     -0.16917096468368
  N   -1.26985213505049     -1.74000834072621     -0.12769889206814
  C   -0.15024033661249     -1.03654211731551     -0.02529604979872
  N   0.93971096422032     -1.82902416759614      0.05423434515443
  C   2.13042251191793     -1.27552929684608      0.05588547787589
  C   2.37763706149036      0.19918060152739     -0.05858626902273
  C   3.73979708118744      0.39074412707770     -0.07015362140570
  C   4.34450781902395     -0.89619908571363      0.04220940124726
  C   3.38736413358881     -1.90148553363890      0.11993065274418
  H   3.55576425415843     -2.96130197222601      0.20232721030428
  H   5.41197063314529     -1.06040850228816      0.06257214924977
  H   4.26052409485219      1.33128900910314     -0.14229523125791
  C   1.26037954197121      1.02668264558046     -0.08340572687326
  C   1.44671163444546      2.43077927512860     -0.12853064625907
  N   1.63112484026562      3.57608755342744     -0.16583313112983
  C   -0.03330455378952      0.46157738111114     -0.03226798663147
  C   -1.11900585538016      1.32896153640516      0.09023061474252
  C   -2.47907567194910      1.09743186642373      0.14722549860014
  H   -3.10602382800580      1.96789036087847      0.27865310032214
  H   -0.85096129153508      2.37679634017142      0.15530802794992
  H   -3.22069673712417     -2.21013896066178     -0.32460737124617
