30
Coordinates from ORCA-job ./opt_b97-3c_parallel
  N   -6.29828232457898     -0.15776396197055     -0.00539925738257
  C   -5.13889512393908     -0.07699096302262     -0.00376509763569
  C   -3.72319979571862     -0.05621200663349     -0.00185356864229
  C   -3.11661868072202      1.19516888711072     -0.00060946995210
  C   -1.78522398753790      1.55790809545526      0.00121383232133
  C   -0.60966668385335      0.80428002346287      0.00242563288994
  C   -0.57556327220468     -0.67116019075740      0.00187520212122
  C   -1.68903143143295     -1.51045820445810      0.00014665331907
  C   -3.07424433758775     -1.32016786322784     -0.00145999533422
  N   -3.84919837586673     -2.43597631324309     -0.00227611579723
  H   -3.43733460459780     -3.34857616920863     -0.00450160492103
  H   -4.85107681343324     -2.37912680498900     -0.00555961005028
  H   -1.41453409172060     -2.55996016699923      0.00016504127212
  C   0.67000178722491     -1.33228746255497      0.00319128343958
  C   1.84879032944658     -0.63340275891305      0.00500585099962
  C   1.83878877249834      0.83101381260699      0.00557076348196
  N   3.06954088855811      1.34679388914367      0.00737381402012
  C   3.90210290200858      0.26871977717905      0.00805144272829
  N   5.22149311585060      0.43547905814600      0.00988764187140
  H   5.59830078372858      1.36635726056388      0.01062994338690
  H   5.84724719674909     -0.34944906064628      0.01028464161515
  C   3.20905492933400     -0.98319805054924      0.00665718990806
  C   3.79659054947581     -2.24548208750398      0.00701928220384
  N   4.32474633783613     -3.28430962830458      0.00744463100451
  C   0.61960674151224      1.51376480258081      0.00428272598740
  C   0.63933648263078      2.92806719121694      0.00490307893372
  N   0.63913422813663      4.08887464734472      0.00543015531734
  H   0.68590302507118     -2.41385698798281      0.00279905874559
  H   -1.63113613717049      2.62841037383039      0.00180476417905
  H   -3.80965823899737      2.02567441302359     -0.00122663593074
