29
Coordinates from ORCA-job ./opt_b97-3c_parallel
  N   4.90074230418071      1.73865184972975     -0.00519657130264
  C   4.14817459538157      0.85088764583149     -0.00355044492398
  C   3.23697720737009     -0.20956328791883     -0.00182548082293
  C   3.55839759285240     -1.60701480600535     -0.00080214722467
  C   2.40635386361679     -2.37012051503351      0.00088747786951
  C   1.31326111922804     -1.47827822140835      0.00093873537521
  C   1.84130393303349     -0.10802621188515     -0.00073064618676
  C   0.97842806369810      0.96706028485600     -0.00067933633050
  C   -0.40733137762354      0.80637242973026      0.00059531518396
  C   -1.21032369637338      1.98526136404248      0.00140889556853
  C   -0.52544267085254      3.23455747442059      0.00162602641570
  N   -0.01740062470284      4.27819268492502      0.00189446434211
  C   -2.59337554760709      2.14428649746950      0.00203401240641
  C   -3.61283810978234      1.21285268025120      0.00181742123843
  C   -3.51506085619143     -0.17367705801080      0.00114363493934
  N   -4.66015881410612     -0.90994815037388     -0.00051661297520
  H   -5.56068934451460     -0.47166447809623      0.00445366954998
  H   -4.63767183027273     -1.91150024234226      0.00461434354265
  C   -2.30765535131555     -0.90786906865716      0.00149312594765
  C   -0.97507550016813     -0.55948825224421      0.00150833160561
  C   -0.05307935345571     -1.67123314015899      0.00207121908052
  C   -0.53783899574780     -3.00073295774003      0.00364107713440
  N   -0.91873538271440     -4.09821568268812      0.00485057632547
  H   -2.47467571241771     -1.97829133479489      0.00163493629899
  H   -4.61594897645642      1.62307501021988      0.00202287699995
  H   -2.92405861788839      3.17361101768882      0.00273450168911
  H   1.39410809210203      1.96462869963266     -0.00152649253688
  H   2.34649250795711     -3.44528968457946      0.00191511991723
  H   4.56761031767043     -1.98858785916039     -0.00129764552716
