27
Coordinates from ORCA-job ./opt_b97-3c_parallel
  N   -5.31159901361952     -1.39811585847117     -0.00220644557738
  C   -4.17303885629915     -1.16655802207153     -0.00174230409341
  C   -2.79842270581734     -0.82452228558196     -0.00102564124926
  C   -1.90578935261495     -1.90115915267260     -0.00196086293322
  C   -0.53518473953875     -1.93120836210368     -0.00157521839239
  C   0.41752837412812     -0.90348519103462     -0.00020934144648
  C   0.09334052379019      0.53165223816525      0.00101870826381
  N   1.05123294894379      1.49670776810919      0.00206714464285
  C   2.30729050632680      1.14079296388022      0.00208525878836
  C   2.76409627176192     -0.27421009198412      0.00104283153155
  C   4.13507798114579     -0.21091832812820      0.00146501038659
  C   4.43029674172822      1.18762535277671      0.00268938635574
  N   3.36394447950960      1.99439300478787      0.00306023567811
  H   5.42448200859229      1.61407044271808      0.00330107277874
  H   4.84204269221725     -1.02338606258486      0.00098612555915
  C   1.78226715943605     -1.26581108881159     -0.00011886789526
  C   2.17773373388137     -2.62394472507325     -0.00120592036470
  N   2.53647371581382     -3.72827126217040     -0.00186583429645
  C   -1.18497953918060      1.11155390535367      0.00142095093100
  C   -1.16752707223628      2.53765408535937      0.00294058749166
  N   -1.39891902870605      3.67617813211370      0.00438373905374
  C   -2.51030162186353      0.56017381269374      0.00059151511166
  N   -3.54252762153647      1.42375909472481      0.00130868486107
  H   -4.49091868412591      1.09280611877155      0.00093218631136
  H   -3.38875568378394      2.41720258481210      0.00258797194413
  H   -0.11795990648878     -2.92973776358443     -0.00248732111771
  H   -2.38400724786395     -2.87088370999385     -0.00315917032327
