26
Coordinates from ORCA-job ./opt_b97-3c_parallel
  N   -5.71335951870933     -1.04997853936735      0.16665329495202
  C   -4.56508300832659     -0.86969373277774      0.12535976807571
  C   -3.18440394140424     -0.57816070751667      0.06144976461140
  C   -2.29476037681653     -1.66146106202052      0.12846543764951
  C   -0.92696238032473     -1.67330169944471      0.06314758871110
  C   -0.00133221091034     -0.61216815169719     -0.02228740465001
  N   1.27316482260865     -0.98078174828458     -0.07290422513309
  C   2.21511377144305     -0.03742123707234     -0.03173528578341
  C   1.92615093836248      1.40209367934248      0.10840280104766
  C   3.17698596982887      2.09833718244812      0.14021217820730
  C   4.16516473678030      1.16384160763959      0.02232400589870
  C   3.59678408116622     -0.17153225135706     -0.08729224218672
  C   4.32866796828744     -1.35375547207368     -0.22129571109652
  N   4.96034576846253     -2.32482407940155     -0.33172542077161
  H   5.22642402735231      1.35656563413801      0.00958772822519
  H   3.30586326668816      3.16353218253214      0.23745388170634
  C   0.62878892614960      1.79536874930292      0.14976279829070
  C   -0.41188699034690      0.82067871174816      0.04383811109199
  N   -1.61797640651023      1.34010655141152     -0.01061348870092
  C   -2.83551773819185      0.78664684500242     -0.09978207277426
  N   -3.81053153365983      1.69472257737068     -0.33024168980811
  H   -3.55948788910705      2.66502201746737     -0.28483359176607
  H   -4.78253268807876      1.44324680565435     -0.32193294586713
  H   0.32823397048364      2.83166853633573      0.21731366361933
  H   -0.44894042035611     -2.64322309429834      0.09581666397059
  H   -2.76876636717070     -2.62774610598171      0.23306554158034
