28
Coordinates from ORCA-job ./opt_b97-3c_parallel
  N   -5.96869197126963     -0.60651549618284     -0.00590597816732
  C   -4.81335026692819     -0.49823934809522     -0.00480837263372
  C   -3.39621241372847     -0.37460147570836     -0.00286835092431
  C   -2.66479735405793     -1.56566874854978     -0.00283355545657
  C   -1.29845106828062     -1.73952356205511     -0.00107906087873
  C   -0.22404783778014     -0.84145119210152      0.00113314199226
  C   -0.33408222989743      0.63326789211543      0.00216815529838
  N   0.72886756650112      1.43759616916216      0.00432388579800
  C   1.94865931928672      0.91274484637203      0.00562209034449
  C   2.19799042194662     -0.55604709126742      0.00476590635235
  C   3.55537442457086     -0.76041742130975      0.00654370872454
  C   4.16339274900423      0.53549264684058      0.00850541597559
  N   5.48224216586875      0.75074540225976      0.01050360797985
  H   5.85861409531201      1.68076904418662      0.01238482662023
  H   6.13446762916761     -0.01170669143833      0.01136907680741
  C   3.16946635921157      1.55387105348727      0.00790757272715
  H   3.33657405788018      2.61768851262686      0.00901747314673
  H   4.07661844548360     -1.70388856004541      0.00650403838405
  C   1.08096232770533     -1.39163614116838      0.00252569544822
  C   1.29296132108114     -2.79042874535164      0.00172853004004
  N   1.51979705274177     -3.92940890815321      0.00117364720381
  C   -1.56490157226617      1.35019046861338      0.00101872369876
  C   -1.42921046431195      2.77275232128357      0.00236294278551
  N   -1.45543671566753      3.93244868797752      0.00329176021194
  C   -2.88878261316710      0.92252044875898     -0.00116088098107
  H   -3.62412178534148      1.71384742096318     -0.00154951314671
  H   -0.99923948999638     -2.78035020801651     -0.00150337410679
  H   -3.25020649876848     -2.47462557200385     -0.00436953244408
