26
Coordinates from ORCA-job ./opt_b97-3c_parallel
  N   -1.28748168297634     -3.70125035805564      0.10371166020714
  C   -1.24963011548742     -2.53914556940359      0.05528754882388
  C   -1.28756436810469     -1.12808879432997     -0.01045961966321
  C   -2.58703302386308     -0.59442970809981     -0.20531991226481
  N   -3.60334609130896     -1.45991823044921     -0.49935920962209
  H   -3.45767655328961     -2.44661236569741     -0.37064425030091
  H   -4.54635701759264     -1.14837962346353     -0.35812938073418
  C   -2.93135413933247      0.75453264070487     -0.09231547145703
  C   -2.08415080883032      1.83211932402910      0.11948464978501
  N   -0.77246619055138      1.91454664871814     -0.14838378593118
  C   0.14266518356483      0.99029315790135     -0.22967648091687
  N   1.36287324108403      1.49848073647605     -0.58394374736818
  C   2.40759859096198      0.74958367678216     -0.38262729759326
  N   3.70134448921343      1.12565663877746     -0.63615778503564
  C   4.42146345266463      0.08627914302932     -0.22170210867270
  C   3.66961939494091     -1.01051008541306      0.31147323564216
  C   2.35638726744516     -0.61977819468760      0.21064761249941
  C   1.10647785614123     -1.19239251038132      0.39843900666889
  C   -0.03384144379428     -0.45939174565271      0.10440568671477
  H   1.01877524532575     -2.22959274621281      0.69180626955001
  H   4.06679507291894     -1.94064029121426      0.68350567868937
  H   5.50087116584499      0.11555941127728     -0.30346694974617
  N   -2.60147003346729      3.01563532586759      0.55098393133667
  H   -2.04413001754115      3.83514636603904      0.38419540948256
  H   -3.59441652299624      3.13934480043855      0.62172805290623
  H   -3.99017090356964      0.98073801162005     -0.15005698909939
