30
Coordinates from ORCA-job ./opt_b97-3c_parallel
  N   -4.71977482134763     -2.29751747685676     -0.70961405117172
  C   -4.13704164108658     -1.32567135357704     -0.44630575606203
  C   -3.39699315336430     -0.18116964736890     -0.13451694486272
  C   -3.86250853080201      1.06417616151446      0.24136671877698
  C   -2.76431497118846      1.94767496997965      0.48887808607668
  C   -1.59630679691608      1.25660694945767      0.25404446912646
  C   -1.94744403199287     -0.10043227711708     -0.13130822822801
  C   -0.99465368350912     -1.03566151735076     -0.33279010775724
  C   0.39855374245569     -0.71827715845326     -0.15372847007037
  C   1.25455013685380     -1.81673900354382     -0.03692632212748
  C   0.69244010211279     -3.10825827850176     -0.22520891335856
  N   0.33910316120659     -4.20718189913585     -0.35576565003099
  C   2.64815749571948     -1.87259818613372      0.35390447755890
  C   3.53638161740819     -0.81855805731920      0.22868789969813
  C   3.29232330300297      0.47619103555185     -0.20430383776381
  C   2.09754577461922      1.14972524532872     -0.34857378957874
  C   2.22547750904850      2.42639527526087     -0.95516469122760
  N   2.38832897137859      3.42364367199682     -1.52860215892837
  C   0.76959910993686      0.69022376177769     -0.01137618926885
  C   -0.23123879030533      1.62029420104738      0.27614175714977
  C   0.06568043589909      2.95142671101136      0.65479792547600
  N   0.21497229436139      4.03094460949628      1.05431020012299
  H   4.17500363140290      1.05162793127067     -0.44902286158470
  H   4.57606224041292     -1.05650634628157      0.41841042991038
  N   3.11979474360405     -3.06117670407611      0.80898627899917
  H   2.57240242536521     -3.89986335989017      0.72701900978843
  H   4.10991233723427     -3.18864269840446      0.90796408130179
  H   -1.28224754340093     -2.05672278704272     -0.53786521864551
  H   -2.84629743464581      2.97787353639742      0.79423734063631
  H   -4.90349240846556      1.32938718936009      0.33481226224233
