28
Coordinates from ORCA-job ./opt_b97-3c_parallel
  N   -4.82906072320151     -1.16278381667898      0.06964567373721
  C   -3.94892429123148     -0.40231831057034      0.04722803133401
  C   -2.94222663952337      0.57026266709717      0.02070316915312
  C   -3.20183856874480      1.98821382228684      0.00615477272371
  C   -2.02424289662391      2.69211251786763     -0.01886908657953
  C   -0.96358080024985      1.74658033965068     -0.02106740781361
  C   -1.55649995802161      0.40188464340296      0.00372592020435
  C   -0.70993737156632     -0.71360663819581      0.00338906370594
  C   -1.27221192935354     -2.01357367676444      0.02417758382091
  N   -1.69938580628820     -3.09294498112494      0.04110828291722
  C   0.69990305146133     -0.57358831693685     -0.01584154472156
  C   1.47514576365062     -1.74262172022214     -0.02585948648543
  C   2.83990981017930     -1.94001668351083     -0.03725684919050
  C   3.88220060518740     -1.02523453438226     -0.03534538312335
  C   3.80916055758430      0.36160576976759     -0.03368805261123
  N   4.98820108956238      1.08226780142627     -0.09030235414322
  H   5.82521980131467      0.59876386863930      0.18506372496706
  H   4.95987124577276      2.02915557368175      0.24558908715312
  C   2.61833175234135      1.11284631975995     -0.04508156987789
  C   1.27383262408326      0.78354243560350     -0.03345514233688
  C   0.38971883837303      1.89670648718503     -0.03803804316434
  H   0.81882763260034      2.89042230772155     -0.05425385786348
  H   2.79182912445214      2.18400838855986     -0.06870169131986
  H   4.88031962371329     -1.44963503647419     -0.03942473303451
  H   3.14637232472688     -2.97811682127906     -0.03981690965351
  H   0.90041813685328     -2.65903752079530     -0.02143312822192
  H   -1.91353448353202      3.76376254609574     -0.03387529172805
  H   -4.19616852301970      2.40677868128932      0.01425264555224
