31
Coordinates from ORCA-job ./opt_b97-3c_parallel
  N   6.59134067594197      0.99021208336314     -0.49132211068745
  C   5.44317932379812      0.90742496285965     -0.34644006300011
  C   4.03446382640594      0.81563375919328     -0.17591722233258
  C   3.30862850352099      2.00160871891643     -0.28407279072529
  C   1.95417800890250      2.18183810426895     -0.11007758253936
  C   0.88540936893420      1.28639037368638      0.04711446891797
  C   -0.37911051135285      1.88680788089562      0.14307656443133
  C   -1.53271776863248      1.14459664863273      0.11975427292303
  C   -1.46126980127867     -0.30091461295539     -0.06852017855681
  C   -2.76485062251342     -0.78723127083605     -0.16044954429252
  C   -3.26484926854174     -2.08191697440051     -0.32619394169185
  N   -3.82487936442176     -3.09380716479198     -0.45204732435853
  C   -3.65504358826888      0.33754564448903     -0.00824301753282
  N   -4.97848901022882      0.25324737662491     -0.02561406050490
  H   -5.55166887930771      1.07088602410514      0.09112405035408
  H   -5.43462358640929     -0.63450411429409     -0.15476658885433
  C   -2.88853267374262      1.52080413012712      0.16027054307511
  C   -3.42078981414056      2.80142294996781      0.31044749830470
  N   -3.89834446720982      3.85617599846267      0.43227284745697
  C   -0.20544447370571     -0.92731659578428     -0.12047107440788
  C   -0.18316269501705     -2.30310250009803     -0.45831866140789
  N   -0.23180494851099     -3.39698848680157     -0.84226641382825
  C   0.98205099587005     -0.18296846974755      0.04011053990847
  C   2.21049549938803     -0.86599372009218      0.29486697048099
  C   2.14691989445046     -2.18177605445753      0.84262645233825
  N   2.20881403348322     -3.19786543704387      1.39985956982830
  C   3.52944964279691     -0.44036125268114      0.16064259523104
  H   4.27171942550526     -1.20194990691866      0.35137183282851
  H   -0.44100187997988      2.96533501911947      0.18847845331432
  H   1.64331141349310      3.21834283289871     -0.14899358008054
  H   3.88465709226895      2.89468428948870     -0.48228374429110
