28
Coordinates from ORCA-job ./opt_b97-3c_parallel
  N   -1.46206742831472     -3.70120801836910     -0.05775181980612
  C   -1.46155611542956     -2.53809260502028     -0.06490404935246
  C   -1.57161429914134     -1.12605155230973     -0.04554561712186
  C   -2.92024100457691     -0.66874805168355      0.06868700288007
  C   -3.33663664906432      0.65302662571475      0.07023183100035
  C   -2.56374170949368      1.81032034289022     -0.02547228296987
  N   -1.25108459817014      1.96875042518138      0.06788687199091
  C   -0.25936570839269      1.08773685374195      0.09378445935953
  C   1.00554520772546      1.66903645511261      0.28159427748489
  C   2.15100116174873      0.91716800697718      0.16715764298761
  N   3.44658091162738      1.25712969753568      0.25848621584317
  C   4.06759592336431      0.07486578003147     -0.00158151097417
  N   5.39589422440004     -0.02149070645166     -0.00864145896728
  H   5.95592304911268      0.78527902000138      0.19380915942049
  H   5.82969717410420     -0.90708742499280     -0.19034968752162
  N   3.28921781760119     -1.02287627305818     -0.26082406793916
  C   2.05639757403723     -0.51839268598414     -0.15760351799450
  C   0.82296993511565     -1.12895779073720     -0.29252811393807
  C   -0.35604722372319     -0.40338725052154     -0.11353595868472
  H   0.78515614626746     -2.19071700196563     -0.48562242417524
  H   1.04285413746282      2.73572781891611      0.44188137895374
  N   -3.24197531808063      3.00567081030222     -0.12775812604358
  H   -2.65261960453189      3.79249568358146     -0.33963129276792
  H   -4.13527142269360      3.00546350747680     -0.58695551471664
  H   -4.40783365792839      0.80786526674884      0.13357782073221
  N   -3.90621066882449     -1.61833594329395      0.11813074631331
  H   -3.65978794796870     -2.57223915609106      0.31762809331558
  H   -4.81038645763290     -1.33464908873324      0.44677148649137
