29
Coordinates from ORCA-job ./opt_b97-3c_parallel
  N   1.94465588040155      3.84125303390099     -0.02230602338781
  C   1.77005475702212      2.69152043944812     -0.00823460695196
  C   1.78250941717595      1.27369365203862     -0.00840240626882
  C   3.07899231694265      0.68944993427322     -0.11685861697299
  N   4.12508243091694      1.53182486363827     -0.34049438875421
  H   5.05842592833352      1.19448756290965     -0.19897943464289
  H   3.99272415453648      2.52391528383763     -0.24302443443490
  C   3.37544483542551     -0.66611000715282     -0.01596141001538
  C   2.49897817596932     -1.73092221158165      0.17264533046820
  N   1.16901701589010     -1.76308068677228      0.05828284448583
  C   0.28242476305430     -0.80105863584395     -0.03246981922782
  C   -1.06310275240813     -1.25063190671158     -0.22098041829097
  C   -1.31236653136536     -2.63274402534798     -0.38384420526259
  N   -1.53645600652309     -3.76226892144826     -0.52608527552688
  C   -2.09594007537713     -0.33233669332708     -0.15780020955814
  C   -1.74730220426105      1.08922750756143      0.10747541592713
  N   -0.49552809250760      1.53952235602882      0.19765968880705
  C   0.50726858162427      0.67017780370018      0.08354117375068
  C   -2.95019433913559      1.74980172615910      0.18978289975517
  C   -3.93053188975178      0.73134283902804     -0.03311084161762
  N   -5.25153723492849      0.89715242374208     -0.05171581409436
  H   -5.67672417928146      1.79143885804157      0.10336955209563
  H   -5.83766117382040      0.09771377895166     -0.21838284070802
  N   -3.41588781875352     -0.51413041442130     -0.24282096200804
  H   -3.11825798278031      2.79797804308157      0.36823894790238
  N   3.01820870067033     -2.95564805865801      0.47629633705382
  H   2.40021932251281     -3.73786856385895      0.34622256144450
  H   4.00172467162104     -3.12768829511773      0.37986321159339
  H   4.42816927969692     -0.92062089649944     -0.06467507906029
