30
Coordinates from ORCA-job ./opt_b97-3c_parallel
  N   -3.66361386369749     -3.50673831464136     -0.00419733775546
  C   -3.07079216824992     -2.50481211067739     -0.00074597418520
  C   -2.44910497157753     -1.25633105964494      0.00303323443631
  C   -1.07602299309192     -0.95178452898155      0.00698262393720
  N   -0.06264812758975     -1.78910128658379      0.00526294806675
  C   1.19494711358613     -1.29513511939192      0.00934849141424
  C   2.17375259702152     -2.29333076612637     -0.00262026560031
  C   3.55721809254645     -2.22606306106569     -0.00289155282795
  C   4.39486447543136     -1.13448656283426      0.01356847396680
  C   4.04066677255657      0.22092395286120      0.03700673005675
  N   5.05742280316263      1.13851431507177      0.10667247616191
  H   5.98471007044392      0.84601721098007     -0.14228999663487
  H   4.85282932837292      2.09912111550615     -0.10292624063722
  C   2.73564695844920      0.73119578324235      0.03908636431983
  C   1.47664876199288      0.14667011616348      0.01991243046866
  C   0.34770378982877      1.03413205538539      0.01390153332651
  C   0.55185667868403      2.43274865981004      0.01047080192322
  N   0.76132404211923      3.57515111867371      0.00443617755149
  C   -0.93547534962139      0.51435846971657      0.00842262433788
  C   -2.21991264827298      1.07098290664991      0.00361589719954
  C   -2.63489380153513      2.40390853224208      0.00249541038325
  N   -3.09021867366608      3.47563575641316      0.00081297366698
  C   -3.15205529919248     -0.01772177787448      0.00118205281254
  N   -4.47353225547403      0.11728823579245     -0.00276919761628
  H   -4.89659141654963      1.02937558534934     -0.00357171934467
  H   -5.07290776450618     -0.68942792175992     -0.00372608441504
  H   2.70659674672102      1.81449127348924      0.05844063479883
  H   5.45765057444763     -1.34835611834705      0.01689870269308
  H   4.05657521348242     -3.18668952418932     -0.01976291425136
  H   1.74406474437784     -3.28586246042890     -0.01426434685352
