26
Coordinates from ORCA-job ./opt_b97-3c_parallel
  N   5.08139880532609      0.50225426808426     -0.82359541770453
  C   4.15530516106380     -0.14323603518723     -0.54931783490786
  C   3.04117436413435     -0.92389358297755     -0.22015106771965
  C   3.01372765860093     -2.26474141714745      0.10303166809618
  C   1.67211338935643     -2.69185458826431      0.39885668846491
  C   0.84103440863356     -1.61465879151710      0.25035791967126
  C   1.67016615779131     -0.45606434569880     -0.12701144690718
  N   1.22168845989148      0.74774934602556     -0.27786207628970
  C   -0.11993582856538      0.95765816968524     -0.06959624871043
  C   -0.42883933340818      2.29917653121378      0.13128671100781
  C   0.61052946821669      3.25848016169708      0.02917389798122
  N   1.35424487448423      4.14810542714533     -0.02560414575677
  C   -1.67703699645631      2.83278923042344      0.61105972409371
  N   -2.87133654421921      2.36786085776047      0.45034205777930
  C   -3.20037383286045      1.21260849738196     -0.15331639933931
  C   -2.46733402096267      0.05135851216267     -0.26562192482260
  C   -3.18449413177078     -1.02672692922218     -0.85058665276710
  N   -3.79865235435570     -1.84196554123277     -1.40334280370693
  C   -1.07269005201614     -0.14818584949605      0.05931713465754
  C   -0.55401107902713     -1.42057491945410      0.29298252193925
  C   -1.35867765684184     -2.54209961726526      0.60929106395740
  N   -1.91881298500831     -3.49854606555567      0.95125542445383
  H   -4.22030203150619      1.18176962601571     -0.51492675671615
  H   -1.60455730515276      3.78033504792526      1.13496867182828
  H   1.38477034108335     -3.69474804134156      0.66900995106700
  H   3.88063816087259     -2.90530490747268      0.13077575535531
