30
Coordinates from ORCA-job ./opt_b97-3c_parallel
  N   1.45312042569742      3.43183804519181      0.92934932849771
  C   1.56374103940471      2.33519385070034      0.55818912100801
  C   1.86307662306976      0.99395987586878      0.22264770735723
  C   3.26381630690033      0.68546049885279      0.30360836850756
  C   3.84433046683571     -0.51388086765016     -0.09300676181467
  C   3.18551499426772     -1.69026991400813     -0.44463735948754
  N   1.94908767352550     -2.05907478027635     -0.10297415109754
  C   0.89096146935040     -1.33820937759424      0.15827587211694
  N   -0.17619123648261     -2.05858715800298      0.58766169153754
  C   -1.35939249665762     -1.51070051724995      0.49552856821266
  N   -2.51921183275763     -2.11641493732077      0.83338114398920
  C   -3.47531227724836     -1.27149663138708      0.43389471005550
  N   -4.76459152312814     -1.52888664296526      0.60141338298062
  H   -5.46763407453743     -0.88181536100665      0.28949725318577
  H   -5.04409400608299     -2.38352324774091      1.05003816190578
  C   -2.97054798666967     -0.05139494669692     -0.19795062618080
  C   -3.80175561546433      0.95961563945699     -0.67734964361608
  N   -4.59602254567050      1.72919753741048     -1.04241797186605
  C   -1.59839763463655     -0.17531233147010     -0.11943133212829
  C   -0.49302042222388      0.63332737207461     -0.38902943549315
  C   -0.67394072059100      1.90295212117435     -0.97915231207311
  N   -0.85183371720333      2.90412611358282     -1.54027587410505
  C   0.78894854742130      0.12931885334241     -0.06047424643752
  N   3.86663207147154     -2.65313318215474     -1.11574644544941
  H   3.47871409380623     -3.57964689712445     -1.11175570640294
  H   4.84559250681348     -2.55397174513774     -1.30781968203147
  H   4.92706210245630     -0.53356827013286     -0.13464763774183
  N   4.09255520062279      1.66072852206065      0.74767188194227
  H   5.08509718500533      1.53614202183923      0.68914290987087
  H   3.75768759520526      2.59842873726588      0.88524933915587
