30
Coordinates from ORCA-job ./opt_b97-3c_parallel
  N   -6.15301373079364     -1.12842077879808      0.00025462226739
  C   -4.99551228972421     -1.01621462943920      0.00042434751609
  C   -3.59812769325498     -0.80626151127913      0.00075258709152
  C   -2.78347887833865     -1.92736782936801     -0.00030242626418
  C   -1.40148602958985     -2.02280062742641     -0.00026266091817
  C   -0.41314539079756     -1.04122981668616     -0.00004528828380
  C   0.92050973073177     -1.47107012106070     -0.00047474303664
  C   1.96573645946690     -0.57867348632397     -0.00182063276576
  C   1.70243380803849      0.87165742039712     -0.00296078120245
  C   2.90833395414746      1.54262991504500     -0.00442100697689
  C   3.93580933436420      0.56387350889507     -0.00424545683274
  N   5.24830356718101      0.79525067393742     -0.00537466011122
  H   5.61443428571006      1.72909844470992     -0.00646706472931
  H   5.90402613056799      0.03296397024671     -0.00515070173104
  C   3.35756001923043     -0.75170449668446     -0.00264305768772
  C   4.09160038841955     -1.93416306679911     -0.00212122621830
  N   4.75182383702499     -2.89524346351644     -0.00174588057890
  H   3.05108513809914      2.61049361278410     -0.00547089866858
  C   0.37394238975882      1.32033981975086     -0.00221354827064
  C   0.12092815171914      2.71148869443562     -0.00275571241783
  N   0.00145120807624      3.86653434965449     -0.00333023983591
  C   -0.71178672696412      0.41805923453071     -0.00041790792236
  N   -1.90322230664036      1.00060431972407      0.00119324802642
  C   -3.14473174449089      0.55770796775702      0.00261392863149
  N   -4.07749661577443      1.53637718603179      0.00620071690637
  H   -3.75296776582838      2.48636336952282      0.00456625486315
  H   -5.06281353197322      1.34826915013499      0.00448480436375
  H   1.12298089108543     -2.53421689619801     -0.00001215403436
  H   -1.02546635296167     -3.03854095268619     -0.00069106165694
  H   -3.31019213338970     -2.87223593369182     -0.00127827542244
