28
Coordinates from ORCA-job ./opt_b97-3c_parallel
  N   -0.88010384822687     -3.39369507278520     -0.97920337183645
  C   -0.96508457117022     -2.30576126048260     -0.57589505674182
  C   -1.23643672817398     -0.97569660123724     -0.18413913387222
  C   -2.62089555323556     -0.65189282422845     -0.18429413395189
  C   -3.15755013191289      0.58933216065962      0.17620678144652
  C   -2.48920631922359      1.78999035191369      0.33529569428863
  N   -1.25132960439609      2.09983313657433     -0.09861301040159
  C   -0.20912304372531      1.32478130773096     -0.22948012768112
  C   0.98414888208311      2.01229759596070     -0.63476788981977
  C   2.19635780568253      1.44171641469342     -0.43158588990922
  C   2.29128852893177      0.10916778480087      0.20973611975609
  N   3.53829122175006     -0.21562960082365      0.46495449123646
  C   4.29552671915855      0.86010974447110     -0.01767205378162
  C   3.54949144322029      1.87457642938337     -0.55298144070409
  H   3.89964329433504      2.80485401832443     -0.96701475313494
  H   5.37115051435747      0.81472774600140      0.06630138973153
  C   1.11838446924624     -0.65195620218749      0.44157324390949
  C   1.24625118871644     -1.93013994218326      1.03068515402394
  N   1.35173295746026     -2.94402088402687      1.58616609603621
  C   -0.12966382615971     -0.12541141224971      0.09683227209361
  H   0.86381399430833      3.04137414445821     -0.94358798575370
  N   -3.13245143904146      2.85420836258386      0.89397963859159
  H   -2.74673719691122      3.76155807729376      0.70122591816440
  H   -4.12089552570085      2.80955748588399      1.06093569210885
  H   -4.23408711012595      0.62189473225680      0.30030915973879
  N   -3.50545896709482     -1.62174958880870     -0.53218378451281
  H   -3.20559240656841     -2.57746080627644     -0.61692048956834
  H   -4.48734432828356     -1.46569637830094     -0.40879287735661
