26
Coordinates from ORCA-job ./opt_b97-3c_parallel
  N   -6.37956715889939     -0.52035919889312      0.00066705884979
  C   -5.23382236944270     -0.33180797181348      0.00001910643217
  C   -3.83099012402914     -0.11642757098882     -0.00016161249349
  C   -3.02431807910656     -1.28251519457758      0.00070369348866
  N   -1.72813389464368     -1.42994454006311      0.00074400566498
  C   -0.73199674926103     -0.52119233511075      0.00000147961767
  C   0.54063114605656     -1.08415399730355      0.00018989689062
  C   1.67390773713391     -0.28838167798166     -0.00052282108871
  C   1.55002556583194      1.17333831214992     -0.00140215765690
  N   2.75056698760317      1.78365634969037     -0.00201602103014
  C   3.65171467557925      0.77870373249104     -0.00159440099428
  N   4.96070240759454      1.01614685118062     -0.00205187686349
  H   5.62670161438346      0.26475635253870     -0.00174451221078
  H   5.29016829374773      1.96472343272994     -0.00271161349551
  C   3.04609497573318     -0.53335182488662     -0.00065976520241
  C   3.74628259909587     -1.73801885359613     -0.00016007640934
  N   4.38761712158932     -2.71038282644795      0.00007289289012
  C   0.29804626328712      1.75319232573785     -0.00158052480034
  C   -0.86078071487648      0.96922406788147     -0.00096470590867
  C   -2.07719108861790      1.65431947361720     -0.00140784291078
  C   -3.38421480535534      1.19896593548895     -0.00111706346918
  H   -4.15082122697690      1.96206364364309     -0.00168586902779
  H   -1.98047626993143      2.73344811758196     -0.00215660484273
  H   0.21507842534836      2.83147768790766     -0.00227512722605
  H   0.60627842953970     -2.16219823802776      0.00088065656284
  H   -3.57559289948360     -2.21802071804827      0.00144158813375
