27
Coordinates from ORCA-job ./opt_b97-3c_parallel
  N   -6.49316073411316      0.00039989013818     -0.00164700110649
  C   -5.33322294333670      0.00033462151058     -0.00187038968564
  C   -3.90877971118057      0.00025721839852     -0.00162538093551
  C   -3.29319552155254      1.25426350815955     -0.00053792038170
  C   -1.94142827017560      1.54513166017902     -0.00000305324162
  C   -0.79828523302447      0.74071794686878     -0.00034406162383
  C   0.43156144077793      1.41650259737744      0.00045511043898
  C   1.62186603513350      0.72916324051085      0.00022477579873
  C   1.62178811114089     -0.72924808051336     -0.00085992315596
  C   2.97305868422316     -1.15264645513265     -0.00084721861495
  C   3.40397442079257     -2.48580160282787     -0.00172981138406
  N   3.72338504916724     -3.60382452054670     -0.00245549893307
  C   3.77993907223064     -0.00015762682249      0.00020635519629
  C   2.97318157191494      1.15241757768555      0.00083898561819
  C   3.40423964673909      2.48552650075092      0.00188141139027
  N   3.72377106839461      3.60351509351322      0.00227172038938
  H   4.85762732736786     -0.00021530466806      0.00047018504592
  C   0.43140927652697     -1.41645859678631     -0.00167289041516
  C   -0.79836468185868     -0.74054077294021     -0.00146275861928
  C   -1.94159459467526     -1.54483057384218     -0.00235829816851
  C   -3.29333054461893     -1.25381546848113     -0.00246242417456
  H   -3.95892117481922     -2.10524873770266     -0.00327365546671
  H   -1.72563216204524     -2.60685857734745     -0.00311936748425
  H   0.43650546784121     -2.49857515451620     -0.00249078232185
  H   0.43677483362331      2.49861866077705      0.00126314536268
  H   -1.72535040826282      2.60713613638400      0.00085108571723
  H   -3.95869424961069      2.10576884597363     -0.00003711254452
