28
Coordinates from ORCA-job ./opt_b97-3c_parallel
  N   -5.88845756254121     -0.16642446085892      0.03671746896166
  C   -4.73730600876802     -0.00509770731034      0.00998697713164
  C   -3.32852604109949      0.12327252165718     -0.01490956360973
  C   -2.82246893800046      1.44324833468814     -0.01430523891852
  C   -1.53511054728556      1.89639693242424     -0.01198702431380
  C   -0.29336901341208      1.22097549730856     -0.01022359330558
  C   0.85711178985001      1.99580905307036      0.00164044942692
  C   2.12912749769446      1.43168716783158      0.00625264931923
  C   2.25352494526153     -0.02947718630082     -0.00305735697017
  C   3.65575273353893     -0.33601904946223      0.00450787178756
  C   4.19607045018382     -1.62482493253047      0.00091328809912
  N   4.60369982492712     -2.71555799751704     -0.00181463376028
  C   4.33314214510289      0.88382125179588      0.01739643955388
  C   3.41384921137930      1.95899020507867      0.01832910933494
  H   3.67661244823359      3.00453214095648      0.02691379269178
  H   5.40751866534024      0.98307233816557      0.02545772682276
  C   1.14830905081971     -0.81718276593016     -0.01666917658487
  C   -0.16380048629366     -0.25127649463503     -0.02003992903692
  C   -1.18706347014879     -1.17036358424222     -0.03788939101875
  C   -2.60145282103763     -1.07498092331853     -0.03729044220917
  N   -3.26971826985284     -2.26514867182712     -0.10432493755981
  H   -2.78206980505314     -3.10704602306637      0.14009601194209
  H   -4.26212964050131     -2.28095066423042      0.05759773782289
  H   -0.83937987448537     -2.19773441146508     -0.06054003369648
  H   1.24955714069625     -1.89492774660258     -0.02513714979574
  H   0.75306677009398      3.07351275980052      0.00742897961487
  H   -1.44397155919436      2.97620258354474     -0.00673793110703
  H   -3.58653754584783      2.20817383137546     -0.00597804132246
