30
Coordinates from ORCA-job ./opt_b97-3c_parallel
  N   5.13256289622636      1.41337269860502      1.06661301175403
  C   4.39941952104035      0.57404834889370      0.72817034649690
  C   3.52490692085981     -0.43644820053894      0.32597887970161
  C   3.91255425302447     -1.81499478862146      0.00831653093010
  C   2.81713019447648     -2.53178768733803     -0.33973810492036
  C   1.67475948894185     -1.64317938403105     -0.26249096613160
  C   2.15192670598212     -0.33013258008230      0.15581209360167
  C   1.25599043140643      0.73383800755625      0.25551018370451
  C   -0.09623969840170      0.56714486369661      0.02822884531509
  C   -0.91581451577557      1.74253407694003     -0.15374616703554
  C   -0.24274124671532      2.95832600383096     -0.38143373956865
  N   0.25002686914297      3.99470422344779     -0.58019300146751
  C   -2.31562802966990      1.83541843915777     -0.17128352761514
  N   -3.19720859638991      0.91744949899901      0.26420838661989
  C   -3.04198411494867     -0.36749034569656      0.36097161639449
  N   -4.03980765168795     -1.04574441511817      0.96798706874922
  H   -4.87591088813113     -0.53733318969454      1.19350924345237
  H   -4.08025517184700     -2.04835599602593      0.96106880356783
  C   -1.92698563038375     -1.17559776566704     -0.14165973466547
  C   -2.27848813124751     -2.51539804846194     -0.43441397252813
  N   -2.65003564336137     -3.59596270289854     -0.64970021011846
  C   -0.59839042310618     -0.78984122472137     -0.21934444241662
  C   0.35429409589171     -1.84460785488760     -0.46614546796276
  H   -0.01619288227952     -2.82650269151032     -0.72218575560575
  N   -2.91468175368547      2.97816406541191     -0.59297971167749
  H   -3.87489621768342      3.10425024007996     -0.32929532539920
  H   -2.36648154210399      3.80603944034279     -0.74897592128550
  H   1.64038801565080      1.72377180722250      0.45796610636625
  H   2.78287854999080     -3.57123414574146     -0.62052304972839
  H   4.92901519328433     -2.17155390574931      0.05698827807274
