29
Coordinates from ORCA-job ./opt_b97-3c_parallel
  N   -5.64324764303180     -0.99327436812463     -0.04062393720368
  C   -4.48355031576541     -0.90554133221952     -0.02339037767234
  C   -3.07798405796524     -0.74844002306353     -0.00718185162435
  C   -2.33556814337985     -1.93649019967746     -0.02147212367802
  C   -0.98448477525813     -2.13901260033424     -0.00879195441582
  C   0.10746105016573     -1.25042032122825      0.01025910148541
  C   1.36577619252654     -1.83844297543694      0.02113982216315
  C   2.53285134416874     -1.08261941897670      0.02346674020377
  C   2.41986811934376      0.38527215033013      0.00918469079822
  N   3.63006318029123      0.97795441582943      0.00954728655696
  C   4.50542253241423     -0.05432124082052      0.02340390489149
  N   5.82046529325736      0.18717240711249      0.02713504714665
  H   6.49583783495241     -0.55244819155417      0.04030356785596
  H   6.13970104221803      1.13942539489523      0.02251083813363
  C   3.88420409485846     -1.34835135282613      0.03231098059779
  H   4.38150867555492     -2.30442817419814      0.04348438412753
  C   1.18198952700860      0.98526523566881      0.00001726150366
  C   -0.00641125586545      0.23404343303603      0.00511699223087
  C   -1.21964986376457      0.96713446338650      0.01131236246334
  C   -1.07328334523782      2.38143196266523      0.00225209949801
  N   -1.05900317305771      3.54347061185906     -0.00973944859109
  C   -2.60007998605583      0.58033423726668      0.02306237146398
  N   -3.52804668331416      1.56926612425589      0.08790007872044
  H   -4.50186867546592      1.34753063446343     -0.01538306440710
  H   -3.26432575247761      2.53229162293044     -0.01390225080796
  H   1.14607633037607      2.06365190916285     -0.00537110329808
  H   1.42408975612602     -2.91907453503528      0.02427995417416
  H   -0.69469840713012     -3.18259583253611     -0.01716083494858
  H   -2.93798787929251     -2.83459176303048     -0.04307499866806
