27
Coordinates from ORCA-job ./opt_b97-3c_parallel
  N   -5.90263649513895     -0.11700051829409     -0.00216328484147
  C   -4.75008625662367      0.03049615389455     -0.00070878580831
  C   -3.33728482972676      0.13642731917942      0.00064976071090
  C   -2.81531137655084      1.43442195409818      0.00013088138026
  C   -1.51139045800310      1.87189978983809      0.00017077911441
  C   -0.29129322614899      1.18326853124064      0.00054853851690
  C   0.87043236095779      1.95789002844677     -0.00001895948004
  C   2.12023909380266      1.37062717687056      0.00002919364535
  N   3.33032789283534      1.96221428533004     -0.00049694208562
  C   4.22152485321529      0.94388351257968     -0.00020866795686
  C   3.63386888147191     -0.33540993031876      0.00053525077798
  C   4.26474752423961     -1.58297715971904      0.00097029286957
  N   4.76254535952869     -2.63480218135071      0.00131366463663
  C   2.23787666510897     -0.09100676089635      0.00072262272004
  C   1.11980889231367     -0.87650337259571      0.00136718141887
  C   -0.17336671711846     -0.29644643693651      0.00130792638672
  C   -1.22250741273162     -1.19851885512671      0.00229633702729
  C   -2.62535957386635     -1.08463612139380      0.00226671709165
  N   -3.32567317522147     -2.25018351601938      0.00609317351648
  H   -2.85484143831348     -3.13357377484854     -0.00657877242077
  H   -4.32906841486080     -2.26018791087055     -0.00443005613635
  H   -0.88876058747993     -2.23103396968225      0.00363645894666
  H   1.20914549053119     -1.95518055674280      0.00199554253905
  H   5.28263154932367      1.14551660127775     -0.00055440196504
  H   0.79354963021244      3.03658134085174     -0.00052655523761
  H   -1.40791291452882      2.95008198671096     -0.00042394949765
  H   -3.56383901262805      2.21467042727680     -0.00081783586903
