28
Coordinates from ORCA-job ./opt_b97-3c_parallel
  N   -5.88401039588484     -0.43014200016758     -0.00409739513215
  C   -4.72416480182959     -0.35257142978208     -0.00239272645117
  C   -3.31908092199605     -0.18118605110088     -0.00058387116742
  C   -2.54732707522034     -1.33659893195389     -0.00055425039034
  C   -1.17778249567964     -1.51305491390593      0.00042503620485
  C   -0.11806733331964     -0.60637923768303      0.00140876028543
  C   -0.27777422309003      0.86326139894475      0.00164532784611
  N   0.76986533762377      1.71242194805187      0.00227567945750
  C   1.99430605205335      1.20232335128203      0.00283249512793
  C   2.28032152730561     -0.25459302421002      0.00281310385564
  N   3.58311112771045     -0.50562954786937      0.00349366660913
  C   4.16154330678097      0.74361236940286      0.00396503187149
  N   5.49278913660363      0.82164238881687      0.00474639690088
  H   6.02691847615148     -0.02931527372927      0.00484532437686
  H   5.97388418994449      1.70062164621998      0.00499499591366
  C   3.23487563100237      1.81553320890571      0.00357922951302
  H   3.44782333296162      2.87065137924975      0.00384889285339
  C   1.20253075902567     -1.13277892964171      0.00208443153420
  C   1.43629619983542     -2.52740148709906      0.00191231152713
  N   1.61482681494312     -3.67447290716486      0.00176697807191
  C   -1.50208326377536      1.53906529010856      0.00144660073945
  C   -2.84426781064915      1.16029587210568      0.00076554850937
  N   -3.76443122350014      2.15976189711431      0.00318496665204
  H   -3.47563419693953      3.11839594954588     -0.00576138673046
  H   -4.74924955731951      1.96834356374290     -0.00626505343347
  H   -1.33877471234651      2.61036347004469      0.00232000508704
  H   -0.87755324563660     -2.55268644534656      0.00023625960295
  H   -3.11937412725500     -2.25480979698161     -0.00164948253499
