29
Coordinates from ORCA-job ./opt_b97-3c_parallel
  N   -1.95446587002165     -3.86490820634171      0.03757788837495
  C   -1.83798173541694     -2.70777379834266      0.02914723694399
  C   -1.80439171032400     -1.29228144767534      0.00883603156752
  C   -3.09757245812900     -0.69989861315290     -0.16268585322200
  C   -3.39814569003919      0.64963436859773     -0.05870486015706
  C   -2.52117962787462      1.70760153141372      0.18024976846274
  N   -1.19659138023262      1.73081448042796      0.07743706278268
  C   -0.29923036786578      0.77566570513618     -0.01898345402061
  C   1.02895041649843      1.25249557729389     -0.22181398277476
  C   1.23623661559306      2.63683859119531     -0.41380759536960
  N   1.42974656856797      3.76897309316907     -0.58175772402235
  C   2.10380783789716      0.37558817726694     -0.12496743527914
  C   1.86060928298367     -1.04636025864263      0.18568729178363
  N   3.03872892065419     -1.67350663296866      0.27590307562475
  C   3.91996519605440     -0.66156575410468      0.02655869117976
  N   5.23095195734556     -0.87565910543585      0.02226968081883
  H   5.85874936393496     -0.11488677678834     -0.16165557410138
  H   5.58853458326670     -1.79502021828000      0.20457610422094
  N   3.41449996420792      0.58638227306353     -0.22022928476508
  C   0.57730322227448     -1.53763381661591      0.30267417602304
  C   -0.52704906188641     -0.69709905457015      0.12754124144207
  H   0.43600448538835     -2.59552727044313      0.46577447109311
  N   -3.04316390873344      2.92239277442556      0.51349475309558
  H   -2.42489908268206      3.70909182974215      0.41428961313696
  H   -4.02659584494187      3.09643043612564      0.42049484203263
  H   -4.44701296230184      0.90848290314669     -0.15000672669366
  N   -4.13523992604772     -1.53854312264880     -0.45089253916916
  H   -5.07103211784861     -1.19601891243738     -0.33901113923815
  H   -4.02152742262111     -2.53084938695618     -0.33867926777022
