25
Coordinates from ORCA-job ./opt_b97-3c_parallel
  N   -6.40162683057717     -0.13351195462689      0.00296194148318
  C   -5.24467797810949     -0.04429565716349      0.00168079769870
  C   -3.82688107586424      0.04412792890389      0.00039899816871
  C   -3.13046993137987     -1.20116120963257     -0.00337768640975
  N   -1.85880821157598     -1.47037491415688     -0.00355135923534
  C   -0.77554306985672     -0.67021741968509     -0.00140581902235
  N   0.36408403456426     -1.35721282636356     -0.00083535726611
  C   1.51164981708369     -0.69399433130133      0.00007275357207
  C   1.61432004946634      0.77438157724843     -0.00033946853503
  C   2.99508869960184      1.10816579015179      0.00014066414437
  C   3.51266452536620      2.41020431144698     -0.00014099022872
  N   3.89738697562506      3.50717929267200     -0.00071919580081
  C   3.70882482656359     -0.09330609348034      0.00099846373153
  C   2.82008519821302     -1.20239800874559      0.00097989831417
  C   3.20063902090535     -2.55157113701083      0.00167457119207
  N   3.53683199321013     -3.66332904728753      0.00236116470410
  H   4.78358974940225     -0.17401228882947      0.00158571889509
  C   0.46388130437070      1.50098972611965     -0.00065136425974
  C   -0.78047503634778      0.82755393826658     -0.00062606599846
  C   -1.91028915254903      1.62791043903879      0.00139102778791
  C   -3.26661848911285      1.30617333051749      0.00245858124643
  H   -3.95307278130528      2.14145040727209      0.00489878257960
  H   -1.70785874064441      2.69274367829197      0.00249094891015
  H   0.48471809543515      2.58359102466463     -0.00048920126391
  H   -3.77140749338480     -2.07758283721078     -0.00602190530788
