24
Coordinates from ORCA-job ./opt_b97-3c_parallel
  N   5.49988812326886      0.53741941387340      0.00128418847508
  C   4.34037798243257      0.50887444711717      0.00097036471167
  C   2.91603120683006      0.48971885178673      0.00060436021225
  C   2.28398053056440      1.73990579585513      0.00062214953717
  C   0.93450015766272      2.00907426187174      0.00032162831358
  C   -0.19994567255966      1.18663456920559     -0.00007284387425
  C   -1.43984515826868      1.83893854556813     -0.00029359055821
  C   -2.60269139819485      1.10413488451449     -0.00067388836734
  C   -2.48275654858590     -0.38028790192069     -0.00082366611708
  N   -3.68982987056445     -0.96472605980152     -0.00117159382829
  C   -4.56282522634084      0.07195806477339     -0.00128499061058
  C   -3.96897410065072      1.34914937341366     -0.00097637038175
  H   -4.47705270946740      2.29925789768256     -0.00098909776824
  H   -5.62499764933304     -0.13021126463717     -0.00158128234077
  N   -1.32601349917483     -1.01733506381190     -0.00062724827039
  C   -0.19783680433306     -0.29705503867477     -0.00027446259941
  C   0.96566801548222     -1.10219649918589     -0.00010115758539
  C   0.73511277882440     -2.51232683435102     -0.00036268300163
  N   0.70279467795584     -3.67160418148999     -0.00051597329465
  C   2.32265732875391     -0.76653871139926      0.00027767573222
  H   3.00069697663942     -1.60706088334866      0.00032639892424
  H   -1.45964886942339      2.92177937609514     -0.00015829145770
  H   0.70004966287074      3.06760589549736      0.00041251532119
  H   2.94034260881166      2.59847839176637      0.00090818832827
