29
Coordinates from ORCA-job ./opt_b97-3c_parallel
  N   6.25719335795214      0.63373442165283     -0.34830343570694
  C   5.10073503813352      0.65779826381513     -0.23927645550804
  C   3.69338597004639      0.61694691955477     -0.09163070730060
  C   3.02055793854090      1.80783978419367     -0.12377961083889
  C   1.64378797775354      2.06078619792284     -0.00893078241013
  C   0.57256057487104      1.19907786401829      0.06244742865458
  C   -0.71869007477385      1.79771676570607      0.10091911904938
  C   -1.83698247396670      1.03350815266420      0.05023452494741
  C   -1.75861796576851     -0.42142342771569     -0.03424940271828
  C   -3.06672437180654     -0.89956949445870     -0.08316893242695
  C   -3.51543589046848     -2.22395753543313     -0.17221165170237
  N   -3.94813648503250     -3.30012497677932     -0.24825503101578
  C   -3.95768404981448      0.23298104818724     -0.03048304128435
  C   -3.23395049894764      1.40097313737437      0.04979805342540
  C   -3.70819164495695      2.71675647557746      0.11449162066994
  N   -4.04837481226908      3.82721868831552      0.16950083385343
  H   -5.03232204077772      0.15666453744649     -0.05327935300973
  C   -0.49427905085693     -1.03856872419570     -0.02784811105343
  C   -0.37112048576756     -2.44889726162110     -0.05747757656406
  N   -0.27528624895389     -3.60450656184206     -0.08155998497352
  C   0.68465489156162     -0.27461896654327      0.03310600897705
  N   1.81513472228870     -0.98735483230921      0.10752036869557
  C   3.08375479316309     -0.69456975210962      0.11408635352446
  N   3.92304150164223     -1.73326053818363      0.31398659838846
  H   4.92059723987513     -1.64703125240957      0.24732887409072
  H   3.51635872762417     -2.65104001986231      0.36508838090717
  H   -0.79413385094487      2.87627425062407      0.14722748982874
  H   1.38851251041605      3.11300013822713     -0.00743526827412
  H   3.63709225473677      2.68697244538427     -0.25475109322487
