27
Coordinates from ORCA-job ./opt_b97-3c_parallel
  N   -5.83608714639545     -0.27151406355937     -0.00156778160900
  C   -4.69354249686691     -0.05199981391832     -0.00120822361154
  C   -3.29518088393665      0.14164929492306     -0.00051973718352
  C   -2.83269282471725      1.47266966897606     -0.00080498618977
  C   -1.55071061918141      1.94363824877598      0.00009392964367
  C   -0.31246689862058      1.26336402548756      0.00098256086638
  C   0.84789778131446      2.01777719299749      0.00180997718364
  C   2.11253616767677      1.43151705292598      0.00113123284087
  C   2.21573610104208     -0.03220719341739     -0.00085092012650
  C   3.62190098855437     -0.35992632005240     -0.00117133652926
  C   4.14855466326650     -1.65450185465533     -0.00255325402360
  N   4.55253919458129     -2.74625442026436     -0.00373351430143
  C   4.31153816553867      0.84519595446238      0.00038532507355
  C   3.40095760807276      1.93795562854361      0.00158807497417
  H   3.68049453635072      2.97923356499240      0.00287951989725
  H   5.38686795256775      0.93297004536483      0.00057007620003
  C   1.10517057435112     -0.80754627381419     -0.00181977093121
  C   -0.20430772502186     -0.22221595423280     -0.00051910177254
  N   -1.15796568335836     -1.12206845072920     -0.00023225415462
  C   -2.50074696276533     -1.02644651006685      0.00108824366808
  N   -3.09890648116477     -2.23958155382854      0.00358690886288
  H   -2.50958860878937     -3.05081891172150      0.00214141663152
  H   -4.09614373498447     -2.35047308599306      0.00327990028741
  H   1.15771464155272     -1.88667491311177     -0.00294118750364
  H   0.76244927852536      3.09727024510912      0.00276048420841
  H   -1.46348923272172      3.02375109505620      0.00003295625431
  H   -3.61347676067048      2.22045089535041     -0.00177939215559
