24
Coordinates from ORCA-job ./opt_b97-3c_parallel
  N   -5.51691674064762     -0.64785159068692      0.00241427667462
  C   -4.35849664548620     -0.58969043430772      0.00206750537927
  C   -2.93578328971850     -0.52632699667728      0.00174683585707
  C   -2.26076848286630     -1.74410580683709      0.00296190301165
  C   -0.89633276191193     -1.96003577592207      0.00288791901708
  C   0.20894032533640     -1.10457566974750      0.00157945667984
  C   1.45410333660825     -1.75329294753133      0.00185910089213
  C   2.62202753090527     -1.02668911322872      0.00051751695246
  C   2.57423669823341      0.43582953553488     -0.00112099608217
  N   3.83222675829003      0.90644916522514     -0.00229108812195
  C   4.56791371831727     -0.23384405184661     -0.00137707956175
  N   3.91136132339730     -1.41655595893933      0.00033730082319
  H   5.64773246934793     -0.19682250023128     -0.00196429100038
  C   1.36335037908033      1.10099569170116     -0.00132860031704
  C   0.16317471690217      0.38668503429299     -0.00006288820903
  C   -1.04231835009109      1.13896599944027     -0.00042414281757
  C   -0.90891023189941      2.56282660857251     -0.00168840799989
  N   -0.86241332466701      3.72145516052268     -0.00238065863117
  C   -2.38098971838480      0.75398460646032      0.00029381987305
  H   -3.09218914002366      1.56676867861494     -0.00036070271572
  H   1.35734868118125      2.18088372524505     -0.00252521532202
  H   1.48933927315303     -2.83413288396709      0.00308061459948
  H   -0.62621967396629     -3.00896254369661      0.00401211442591
  H   -2.88039642818983     -2.62961581189040      0.00408272629295
