30
Coordinates from ORCA-job ./opt_b97-3c_parallel
  N   5.95908766828735      0.46617730495545      0.18583782567386
  C   4.79737462180244      0.47374145410312      0.13186652042267
  C   3.38812039058970      0.40737989720553      0.05816765790648
  C   2.68122070764625      1.60086932275923      0.10842610794908
  C   1.31968049333009      1.83509450725206      0.04826622952362
  C   0.23598934875743      0.96021751056006     -0.02465664107969
  C   0.39393376643911     -0.51858713740259     -0.00312201526533
  N   1.52221201529620     -1.20699528055171     -0.05850403278845
  C   2.80406844443734     -0.89145949743192     -0.08765700371533
  N   3.62564758879699     -1.95232835754145     -0.26185445524686
  H   4.62359888970230     -1.87116002231802     -0.19224547900608
  H   3.20671479422237     -2.86473105033598     -0.23882825057278
  C   -0.76632295587428     -1.32974321659878      0.05801216553613
  C   -0.61913438344524     -2.73603134964194      0.09757708643868
  N   -0.58630331530558     -3.89616338085342      0.13412229703178
  C   -2.05051544467303     -0.78261239848895      0.04419048572354
  C   -2.20734042798584      0.69201025381051     -0.04048661348295
  C   -3.55048573373896      0.97754075954068     -0.06139804877688
  C   -4.23788800815900     -0.27757082423439      0.00909777547573
  N   -5.56714622326247     -0.41049695709632      0.01286497764935
  H   -5.99986172357173     -1.31444366280692      0.06335442550108
  H   -6.17089872055182      0.38933231321813     -0.03572098330492
  C   -3.30669343269976     -1.34960626612739      0.07362574755289
  H   -3.54181794157989     -2.39918247603818      0.12946972912186
  H   -4.00879981712282      1.95099261211822     -0.11635476706950
  C   -1.06578133085288      1.50547332234489     -0.06783011905038
  C   -1.25962832778746      2.90452972683672     -0.11741540325177
  N   -1.46039113300197      4.04829208632256     -0.15897504269873
  H   1.05444599849659      2.88384615777288      0.07605675513464
  H   3.29344327420869      2.48770437646785      0.20237446636816
