28
Coordinates from ORCA-job ./opt_b97-3c_parallel
  N   -6.16457947891427     -0.76797452844208     -0.00098565545910
  C   -5.00673944273269     -0.66014658477213     -0.00080263765253
  C   -3.60782207483102     -0.45341290418785     -0.00058795898325
  C   -2.80327949104524     -1.60057321378683     -0.00161028351038
  C   -1.43919251306037     -1.73854705421119     -0.00160909034381
  C   -0.39970914309590     -0.79124605669804     -0.00055566744793
  C   0.91013315601824     -1.27206670266268     -0.00081830944468
  C   1.95943040300315     -0.37941234662309      0.00026005010565
  C   1.65366389110644      1.06660970415894      0.00164999180032
  N   2.77901848099317      1.81334245369453      0.00261506698876
  C   3.78512212313867      0.92534634898318      0.00193276689694
  N   5.05916386426250      1.31046657157776      0.00260046515147
  H   5.27683658893799      2.29069412537835      0.00356501044480
  H   5.80620218005764      0.64000059453946      0.00202745774547
  C   3.34777392149168     -0.45793847940684      0.00047151761640
  C   4.18394777507493     -1.57078677313337     -0.00046099897011
  N   4.92456929825189     -2.47100857519071     -0.00102681937147
  N   0.43274978015064      1.54832667594857      0.00190938282717
  C   -0.60647706053047      0.66993365604941      0.00085867250983
  C   -1.83342042299827      1.31730884570491      0.00125619060341
  C   -3.17329087278128      0.89305840586428      0.00066045457742
  N   -4.10955645008762      1.87418538207781      0.00117311423390
  H   -5.09112019719093      1.66428643271428      0.00179418033799
  H   -3.83880432962938      2.83829629498609      0.00324252026660
  H   -1.70198882828609      2.39277162420707      0.00225468643373
  H   1.08590929498330     -2.33993063095877     -0.00184361893309
  H   -1.09697262328740     -2.76664359202062     -0.00256321681789
  H   -3.35823399949929     -2.52919361819040     -0.00251971810560
