24
Coordinates from ORCA-job ./opt_b97-3c_parallel
  N   -3.99469489189461     -2.64901335897680      0.45168796978689
  C   -3.53239547459353     -1.59386517082189      0.29081974018509
  C   -2.97110512483261     -0.32810579843818      0.09589648715548
  C   -1.56435386744781     -0.01400179881947      0.10638401544448
  C   -1.43992516883330      1.44497659256990     -0.16096094401406
  C   -2.71636253131703      1.94130160117259     -0.32066703797982
  C   -3.63460580641436      0.86426627462566     -0.16629874964460
  H   -4.70742650258515      0.95488524745965     -0.24035733522782
  H   -2.98974367877522      2.96584589181979     -0.51377030264141
  C   -0.16558352217532      1.99657994236501     -0.11332597271089
  C   0.93333873353084      1.18386360026317      0.10435080181898
  N   2.12700715660789      1.80378662839071      0.27275966286426
  C   3.31441956242875      1.27258709146612      0.35587100543766
  N   3.80641450960135      0.04462061603701      0.10226792413876
  C   3.08802523798086     -1.04549171719624     -0.04358007502294
  N   3.76896301575217     -2.16476229492892     -0.37978881214769
  H   4.74702871004545     -2.07415969972346     -0.59056996382049
  H   3.29972077364504     -3.01210283231822     -0.63753668985114
  C   1.67986995281559     -1.22405754368526      0.17983696685703
  C   0.69994948897527     -0.27821693115432      0.22811355427808
  N   -0.56655175882643     -0.81938330110823      0.30603170331038
  H   1.31788329160515     -2.24253385433815      0.25151189298181
  H   4.09621776674555      1.98253384925083      0.60724699870835
  H   0.00182414496147      3.06137673858870     -0.19748258600642
