30
Coordinates from ORCA-job ./opt_b97-3c_parallel
  N   -6.39407271923031      0.03244327116744     -0.65944343199119
  C   -5.25411192115766     -0.06417323268986     -0.46673104875211
  C   -3.85637516948632     -0.18481996549434     -0.23818195167363
  C   -3.30052016617838     -1.45284706688947     -0.35117413526702
  C   -1.99423850887017     -1.84043816066599     -0.11896701671504
  C   -0.81299338929218     -1.12030887659261      0.08318334738038
  C   0.37475242309779     -1.89921740579832      0.23330075594146
  C   0.30889102555686     -3.30596604122305      0.36762786493210
  N   0.23920801893580     -4.45847812901691      0.48225800165705
  C   1.62280424493867     -1.29655081868280      0.17661507477275
  C   1.72335972574967      0.14046784730892     -0.07650255154928
  C   3.08036369258819      0.39475288590990     -0.18296313511500
  C   3.80576504499914      1.56532090550342     -0.40982817659398
  N   4.52510350066501      2.46209577638347     -0.58806396662574
  C   3.71006247393922     -0.89938941364228      0.03904812415926
  N   2.82317416772161     -1.89065633748062      0.24713972543553
  N   5.01724289143825     -1.10962579421621      0.04303960410139
  H   5.36992360078064     -2.03598452518817      0.21117133022816
  H   5.66611389660397     -0.35876870837976     -0.11846242822629
  C   0.56195191301936      0.92788334156779     -0.13392461021274
  C   0.71354873734427      2.29279584296142     -0.47855020733280
  N   0.90103707055900      3.37249078114202     -0.86025276055595
  C   -0.70121858158153      0.34108842950136      0.05357565022290
  C   -1.82763556514201      1.19040642120492      0.33482818153424
  C   -1.56062720058641      2.45322863310941      0.94108146514894
  N   -1.44458091145594      3.44173273611386      1.53786102402944
  C   -3.18464558082422      0.97399658309225      0.16887975033699
  H   -3.81378472430339      1.82485452960901      0.38815424104279
  H   -1.85277256777195     -2.91196502089890     -0.15995255431624
  H   -3.98576640646183     -2.25094130460715     -0.60151260380097
