29
Coordinates from ORCA-job ./opt_b97-3c_parallel
  N   6.00952974492498      0.52568827556981      0.26155031777075
  C   4.87597416710877      0.27395576122553      0.20185541462814
  C   3.48708012702971      0.03760024120114      0.10478747974193
  C   3.03854740118548     -1.28483114449456      0.22723813336802
  C   1.76679822915032     -1.79225482952761      0.13588751470578
  C   0.52267504780118     -1.15177754790264     -0.01645176616007
  C   0.39005670790102      0.31713791850098      0.02021767405653
  N   1.33082439112560      1.21455510233642     -0.06038062033090
  C   2.66574424609736      1.16396664834553     -0.14896818951063
  N   3.21930012416961      2.35187184808880     -0.45460604440314
  H   2.61679467104411      3.15574035442429     -0.48133790574924
  H   4.21417844112231      2.48454526220139     -0.49119505939324
  C   -0.93880794241682      0.90485174606006      0.12005491486231
  C   -1.01006172756968      2.31627151373116      0.22081739978156
  N   -1.05768008062572      3.47141933197739      0.30917661986142
  C   -2.05480583353616      0.11560498138788      0.05167439028700
  C   -1.91888772595546     -1.34356281209358     -0.08868396018984
  C   -3.18638894715124     -1.88149665608437     -0.15358438656395
  C   -4.11974438968873     -0.81447935328182     -0.05747045498251
  C   -3.46170510001390      0.40561330619851      0.06759877401633
  C   -4.07753491833534      1.65852112360355      0.18113740356278
  N   -4.62268068259861      2.68087595511532      0.27394338159134
  H   -5.19260655435889     -0.92355143331231     -0.07700333142540
  H   -3.43107843549489     -2.92553422195783     -0.25524614742110
  C   -0.64222027651728     -1.92882994660265     -0.10082219567759
  C   -0.55760766452657     -3.33895869117031     -0.17431747228168
  N   -0.51101154674866     -4.49742996494113     -0.23596693942380
  H   1.71106973299623     -2.87010917916058      0.21522870152930
  H   3.81902842908131     -2.01313333893831      0.39779536194992
