24
Coordinates from ORCA-job ./opt_b97-3c_parallel
  N   -4.38278014155340     -2.33827413051911      0.40918317547224
  C   -3.72757511963597     -1.38707124167786      0.27373709779121
  C   -2.90641320153022     -0.26554805911088      0.11193979790991
  C   -3.29193369070338      1.05943720480813     -0.04770469637878
  C   -2.14868839843481      1.89605199891676     -0.19177410267625
  C   -1.02576340859924      1.10125307928780     -0.12137277722385
  C   -1.46902489730377     -0.28801693075520      0.07216722585272
  C   -0.57945329572406     -1.30902235345118      0.13259734585088
  C   0.81702921089482     -1.05889754770350     -0.03313468527043
  N   1.54214212550310     -2.13333770451355     -0.23269800068003
  C   2.86901419106403     -2.23873413711886     -0.41577379495527
  N   3.85776009142591     -1.46549270845000     -0.03792816667746
  C   3.72304632364205     -0.19231122708678      0.35690170966337
  C   2.63815597070365      0.65294948428579      0.24430199904101
  C   1.29815897536324      0.35327956071206     -0.05452479789552
  C   0.35507952323119      1.38159548891822     -0.14929552101578
  C   0.77182764785604      2.73215337533798     -0.21417180858159
  N   1.09558455166246      3.84574913209821     -0.26714529606871
  H   2.84884331326365      1.69385002368773      0.46174724512826
  H   4.63640567615188      0.24673886329230      0.74128806860330
  H   3.16644858103309     -3.18629006052601     -0.85104430694420
  H   -0.89049415490911     -2.34131158532395      0.20701780651356
  H   -2.16776112555807      2.96474229840788     -0.32793603925687
  H   -4.31499101374275      1.40103009488424     -0.06037524810185
