30
Coordinates from ORCA-job ./opt_b97-3c_parallel
  N   -3.10279057814615     -3.34766871381749     -0.23615900536179
  C   -2.67503900718959     -2.26832024702425     -0.18840551020890
  C   -2.24964114694553     -0.91618788384992     -0.09680210361683
  C   -3.34217783553301      0.00936095190315      0.18059208019687
  C   -3.25991616249603      1.37431520497717      0.11806292611763
  C   -2.13505791842815      2.16805189968692     -0.23567841090701
  N   -0.87159826323448      1.84242420074389     -0.26259199814824
  C   -0.25727012473719      0.65929177371638     -0.10829851756080
  C   1.13619742732517      0.73274947075758      0.05277167061641
  C   1.71770192360563      2.01773540525209      0.16324449456024
  N   2.21030051416724      3.06409121033615      0.26035823164954
  C   1.94146920345416     -0.42355903338713      0.05104226985900
  C   1.30977511480939     -1.71709473219645     -0.19155811079065
  C   2.34509628916873     -2.72836826580570     -0.21106237080404
  C   3.52334207292520     -2.10212336065246      0.01063585715595
  C   3.30048977708359     -0.65850095353965      0.17949577492096
  C   4.33514505797647      0.24598971640513      0.43036302648294
  N   5.24572772402965      0.93865789094947      0.64505937709986
  H   4.49974714182416     -2.55635171946140      0.06538934155368
  H   2.18341802699757     -3.78231932972646     -0.36367271891530
  C   -0.03147431012414     -1.81978801930590     -0.32898476527858
  C   -0.88510089185355     -0.67163321510113     -0.19499031396561
  H   -0.48046884720144     -2.79037820918863     -0.48052722516772
  N   -2.39136722694457      3.46826221086532     -0.56537250129005
  H   -3.27857192913376      3.88248746078105     -0.34851777666600
  H   -1.59391521306336      4.08115033149054     -0.57837275795797
  H   -4.18269307654532      1.91229277599387      0.30414373582223
  N   -4.54776882012639     -0.55878502415859      0.45774148115480
  H   -5.30661869233038      0.02411100627234      0.75605773175300
  H   -4.62617339543384     -1.53651331921585      0.66986422609639
