24
Coordinates from ORCA-job ./opt_b97-3c_parallel
  N   -5.94079067309993     -0.12093408083424     -0.00165792852869
  C   -4.78162850730540     -0.04978950867774     -0.00089423281950
  C   -3.36485386688171      0.02282181374083     -0.00016862137071
  C   -2.67449556873925     -1.21565791524029     -0.00040745900516
  N   -1.40408173345680     -1.50082140079559     -0.00029009999588
  C   -0.30606161233623     -0.71424568437436      0.00024154125071
  N   0.81920689001923     -1.41555310784408     -0.00003839170126
  C   1.98394929774137     -0.75634215997781      0.00090641780605
  C   3.27620366671478     -1.22641993554085      0.00108323134954
  C   4.08608198457260     -0.04754884694347      0.00258597634759
  N   5.41934954946670     -0.00328992159109      0.00346289400462
  H   5.87681929551196      0.89117024260721      0.00478490504534
  H   5.97728878558555     -0.83567200512220      0.00339281663161
  N   3.37909359968641      1.11838938251696      0.00326425467840
  C   2.09985894723983      0.72106851119922      0.00234725962354
  C   0.93908586221960      1.45538673766502      0.00261815778257
  C   -0.29486706684428      0.78956963123981      0.00154399857797
  C   -1.43560202932646      1.59505495356444      0.00162418807972
  C   -2.78236809491932      1.28366782572565      0.00082031905796
  H   -3.46283387406101      2.12476465493150      0.00102903943768
  H   -1.22522562229297      2.65842589653529      0.00250640169387
  H   0.97025724325996      2.53724913994991      0.00365165834652
  H   3.60750514886903     -2.25089009684060      0.00036079471825
  H   -3.32027689902366     -2.09009978929349     -0.00082395521073
