29
Coordinates from ORCA-job ./opt_b97-3c_parallel
  N   -2.14773311224856     -3.61245436660977     -0.36737528075425
  C   -1.86477260968204     -2.49138702215999     -0.24471127984223
  C   -1.63498577522170     -1.09963150918982     -0.08666432179140
  C   -2.85689998263940     -0.34609223500794      0.19151707799633
  C   -2.98094994426218      1.01073349158599      0.12349191131095
  C   -1.97491808668477      1.97219976880430     -0.19304593365946
  N   -0.68284864832443      1.84312739658614     -0.22353393807164
  C   0.10012071999219      0.75182148233748     -0.06363412582234
  C   1.46087530722107      1.01968339240130      0.09981246912420
  C   1.88792549861563      2.36283993556230      0.20719917218477
  N   2.31934363090543      3.43625196805097      0.31141283631709
  C   2.43495108158617     -0.00908553871130      0.11490707354200
  C   2.00260037659363     -1.38333673546357     -0.11378754438823
  C   3.19049550731359     -2.22246358735360     -0.11208661758066
  C   4.25027904353835     -1.40262539766610      0.10452385795099
  C   3.79630082663001     -0.02268798888009      0.24699705983828
  H   4.43177286066007      0.83193064023332      0.41623005635286
  H   5.28389325557153     -1.70795367574460      0.16555675495026
  H   3.20041678751888     -3.29093856874850     -0.24955020070660
  C   0.69489943493904     -1.67488864691255     -0.26894366525344
  C   -0.32166086453839     -0.65375213596698     -0.15427453237927
  H   0.38441762345501     -2.69886280702704     -0.41903709813476
  N   -2.43653325350016      3.22643358792244     -0.50710704825397
  H   -3.35372759246841      3.50067719769411     -0.20521962308352
  H   -1.73571882817293      3.94837083888253     -0.48870043505835
  H   -3.97608357632354      1.40448125117513      0.29797995033672
  N   -3.94402731542692     -1.09059633276626      0.55738504000143
  H   -4.84289840932627     -0.64471962670160      0.54255631165576
  H   -3.95787426333909     -2.07721651930675      0.36690879502090
