24
Coordinates from ORCA-job ./opt_b97-3c_parallel
  N   4.07548546843095      2.61381490492282      0.52835761578405
  C   3.62398413664685      1.56055221919754      0.32471626187710
  C   3.03646116455819      0.31563655747304      0.08564587346859
  C   1.60284351498528      0.04263154723400      0.13316881485502
  C   1.42226373952312     -1.37661591569957     -0.19029054978916
  C   2.67286664670637     -1.90779125095326     -0.40982636141760
  C   3.65175453506439     -0.87144504424822     -0.24010622168136
  H   4.71682595049620     -1.00215602862852     -0.35039898704439
  H   2.89773202001863     -2.93202124926405     -0.66115192616532
  C   0.13387274296969     -1.93559092777151     -0.14939326967977
  C   -0.97572286650358     -1.16661353766719      0.09887958597243
  N   -2.15160414933267     -1.81542202551256      0.36118705675029
  C   -3.32486090903349     -1.27183352575221      0.47706501895864
  N   -3.80543995185022     -0.04272680689496      0.18481121976568
  C   -3.04410083424446      0.98920572707843     -0.08622074593609
  N   -3.62671812440743      2.06404050946436     -0.64846690559335
  H   -3.12875327513358      2.93412795051172     -0.67943277620001
  H   -4.61832878593705      2.04962310880608     -0.80316837471378
  N   -1.71307655777017      1.22253448886513      0.19590700100697
  C   -0.79462927779659      0.30570636957818      0.24974275005183
  C   0.54835355983342      0.83467133638542      0.39842972482350
  H   0.64383123444510      1.89089674948400      0.60769594913396
  H   -4.10279428101140     -1.95181431928940      0.81043877535893
  H   -0.00770159445754     -3.00278724471929     -0.24864242428616
