28
Coordinates from ORCA-job ./opt_b97-3c_parallel
  N   -4.88804772248364     -1.78631830058184     -0.00640642833212
  C   -4.13762804246727     -0.89678748474662     -0.00408046893643
  C   -3.23767743375873      0.17236781834271     -0.00165197522765
  C   -3.59335618958869      1.57967133029256      0.00034437956093
  C   -2.46590541386256      2.35411234013993      0.00244115101902
  C   -1.34704939518884      1.46931780472302      0.00185639991615
  C   -1.85033235129184      0.09249958946013     -0.00069422790717
  C   -0.96354885256150     -0.97546688598990     -0.00119308765179
  C   0.40823395923624     -0.78808174028097      0.00005334859703
  C   1.26074937151570     -1.94641744956973      0.00188826731757
  C   0.62050978459833     -3.21525550871123      0.00463022733162
  N   0.12595186240725     -4.26584648793838      0.00704519141283
  C   2.64556305732847     -2.05270573322004      0.00188013779987
  N   3.62534555753309     -1.15251739915977     -0.00178399221634
  C   3.46927410341149      0.15590328585800     -0.00396418200592
  N   4.61831699275164      0.86869028702952     -0.00956364517917
  H   4.63531813975627      1.87056083343726     -0.01198597243985
  H   5.48818527636520      0.36688072187547     -0.01181127789596
  C   2.26797871500885      0.93582399404470     -0.00025896165076
  C   0.94860019704364      0.58080486356684      0.00116905348983
  C   0.00476772415131      1.69068968197219      0.00309825175550
  C   0.47717207929698      3.02495392017755      0.00506004706573
  N   0.85021610453602      4.12466263687032      0.00633674980430
  H   2.45195972249614      2.00279171941404      0.00081012500586
  H   3.01644065413085     -3.07102449092978      0.00461226362428
  H   -1.36186292816414     -1.98009316933299     -0.00219507592616
  H   -2.41707059665996      3.42971088348889      0.00419151328684
  H   -4.61122235814036      1.93649140586816      0.00015887528195
