25
Coordinates from ORCA-job ./opt_b97-3c_parallel
  N   -5.96815322134372     -0.04601909365640     -0.00592523061687
  C   -4.80761000961442      0.00233665380026     -0.00471222352732
  C   -3.38934670334215      0.04321360486959     -0.00265932155629
  C   -2.73206140807514     -1.21661629493811     -0.00245910442595
  N   -1.46681456501443     -1.52536016892325     -0.00071471886018
  C   -0.36109258055564     -0.74675822786620      0.00149547395350
  C   0.82781628974340     -1.45879223431776      0.00279615702299
  C   2.06404588344714     -0.81597332125655      0.00533029045814
  C   2.11317100272107      0.65910641596551      0.00596979028341
  N   3.37721438219846      1.11273395447790      0.00845312344614
  C   4.13834999737062     -0.01390226401143      0.00944561219731
  N   5.47175551001453      0.09037134358293      0.00832777851528
  H   5.88848428351429      1.00370906448155      0.02719230895151
  H   6.06615566744981     -0.71553465776492      0.03192191612916
  C   3.38014761602722     -1.22518752710049      0.00737992249790
  H   3.76725624414542     -2.23086119079051      0.00681939245811
  C   0.94148617657708      1.38658146786057      0.00497854577223
  C   -0.30660004521366      0.75233295887043      0.00254910539740
  C   -1.42706590409814      1.58104280458266      0.00137707026977
  C   -2.78278784126704      1.29079862222341     -0.00096528523417
  H   -3.44812151196096      2.14387564375228     -0.00144866307783
  H   -1.19773836025649      2.64010638943318      0.00244585342368
  H   0.98991402566522      2.46744445523961      0.00568369307898
  H   0.75230631158123     -2.53664881960544      0.00204071910226
  H   -3.39780232131368     -2.07497955050883     -0.00400212515917
