30
Coordinates from ORCA-job ./opt_b97-3c_parallel
  N   6.11407868796732      0.67852880358733     -0.00262979034659
  C   4.95176201013590      0.68077627817131     -0.00199419573197
  C   3.53611155271212      0.63352072930612     -0.00101791512787
  C   2.89521584131234      1.86192136380369     -0.00153793228630
  C   1.55172095249927      2.17525480840818     -0.00084720926091
  C   0.40634237289696      1.38044586640013      0.00052398789244
  C   -0.80853736111863      2.08566434027481      0.00092485188186
  C   -2.01744650073731      1.43293712108315      0.00224857029942
  C   -2.03194461334004     -0.03120618903315      0.00322979119829
  C   -3.38141484834123     -0.37865760720021      0.00452497414719
  C   -3.99345551828290     -1.62939195979258      0.00586823656144
  N   -4.56626246599199     -2.64410686535187      0.00730362532346
  C   -4.08257285569992      0.88919759531851      0.00418072393823
  N   -5.40621663474039      1.02266140901852      0.00507266349211
  H   -6.00999671305092      0.22031718190450      0.00618803324671
  H   -5.80987233049217      1.94218871642306      0.00483144508352
  N   -3.26191393587543      1.95720307886983      0.00283664885580
  C   -0.84627844653085     -0.74514761391076      0.00282701389665
  C   0.39252940234573     -0.10428449543701      0.00147013704170
  C   1.55525466803251     -0.93878996018700      0.00102599969207
  C   1.29409155553899     -2.33429208664632      0.00156524234067
  N   1.18457181239392     -3.49139930850128      0.00153358863421
  C   2.94872865556393     -0.66779473935749      0.00025251681696
  N   3.80897912979296     -1.71267012991242      0.00107095768631
  H   4.80095188366436     -1.56116042924863     -0.00131682477427
  H   3.48142949618333     -2.66141235245055      0.00035317424410
  H   -0.89451460093534     -1.82372308377568      0.00360632371247
  H   -0.78930356244424      3.16624528596008      0.00021047932003
  H   1.35122593028600      3.23895627655375     -0.00146859610670
  H   3.56224170455489      2.71352500692204     -0.00263376057143
