30
Coordinates from ORCA-job ./opt_b97-3c_parallel
  N   -4.80304066255715     -1.27149372363871      1.04918786284914
  C   -4.05346965587484     -0.46871779433557      0.66593866961703
  C   -3.23288464289064      0.56168879422799      0.19360558977743
  C   -3.76321773455143      1.86135340510259     -0.23171257485326
  C   -2.74968145042989      2.66479719003625     -0.63131053713425
  C   -1.52180892477511      1.91671408598424     -0.48208214438281
  C   -1.85945625640430      0.58795553983354      0.02799084005118
  C   -0.82866844457937     -0.36661036276644      0.22091969291989
  C   -1.16062543359483     -1.63900715364825      0.74230168280751
  N   -1.43363214341616     -2.64609169101999      1.25097852331224
  C   0.50293413135005     -0.04612329592255     -0.05606114205869
  C   1.48132821739495     -1.07785477118627     -0.26995954164187
  C   1.04240405195315     -2.32485684515589     -0.75981800248509
  N   0.81389746368236     -3.36269268554514     -1.23513672649297
  C   2.88253480413030     -0.97033215873075     -0.14225674222401
  N   3.58730721284097      0.05080822554931      0.38706652126738
  C   3.24204996332766      1.30693195991065      0.39491543951164
  N   4.14336806135420      2.17282861552537      0.93459296298230
  H   3.83817255691140      3.07619670060024      1.24723970937795
  H   4.91478084895976      1.76229203069355      1.43228833527206
  C   2.06841801801849      1.91427021442950     -0.16839464879810
  C   0.83304765205426      1.35539594774695     -0.32051724004897
  C   -0.23100881367166      2.27178095754136     -0.64830045196021
  H   0.03727222525843      3.28072531226553     -0.93416593264323
  H   2.15426931192358      2.97243385659118     -0.38395467015073
  N   3.66677341296524     -2.00652261340147     -0.51446927604313
  H   3.26654605658502     -2.89718673167313     -0.75282006303165
  H   4.62861085416467     -1.97567265949522     -0.23145766813353
  H   -2.82348670046056      3.67875062615068     -0.98792725860660
  H   -4.81382988356879      2.10281221262850     -0.21071391185684
