23
Coordinates from ORCA-job ./opt_b97-3c_parallel
  N   -5.71575442748400     -0.14746093178758     -0.09209601194509
  C   -4.55576804285423     -0.14121916275218     -0.06131745809651
  C   -3.13607027770628     -0.13945995265268     -0.01757540042492
  C   -2.51939268905759     -1.36863343574679      0.25428377049750
  N   -1.25291316581768     -1.71400532459827      0.17525711282937
  C   -0.14348290409509     -1.00897155642439      0.00849266789960
  N   0.94343084000159     -1.79794365400829     -0.14823205736941
  C   2.12382523403900     -1.23402170723072     -0.14117291661805
  N   3.30031713726611     -1.89631681896917     -0.27345477227400
  C   4.23226939480488     -0.94492912437972     -0.13992050224289
  C   3.72687468674804      0.37189181915634      0.07897541397835
  C   2.36300417465738      0.22346843918503      0.07451540327481
  C   1.24472874016792      1.05533045005910      0.13609978418103
  C   1.42098730173645      2.45656866882798      0.23074366144322
  N   1.59112790597802      3.60221981974418      0.30902396940830
  C   -0.03889023686991      0.48247349048557      0.04565011156934
  C   -1.13498359031352      1.33733978494732     -0.12514408495174
  C   -2.48501584830849      1.08352842194037     -0.21313848838988
  H   -3.11951854683495      1.93775621918529     -0.40342606718528
  H   -0.87611045529865      2.38555617872850     -0.21536638665222
  H   4.30118543648608      1.27417451546116      0.20642457954607
  H   5.27951457600521     -1.20853844214319     -0.20105088442347
  H   -3.18511891514992     -2.18786830342642      0.50490027784462
