29
Coordinates from ORCA-job ./opt_b97-3c_parallel
  N   4.60476044207190      2.73637747326118     -0.06961836282027
  C   4.07619522673736      1.69881775745775     -0.04719562278270
  C   3.39190714146771      0.48140906655614     -0.02058459116975
  C   3.91790340780181     -0.81079421376112      0.00358092121241
  C   2.88021991699900     -1.77512455679530      0.02698908904311
  C   1.67187906748714     -1.10117625561637      0.01850627484006
  C   1.96454843001036      0.33974467345973     -0.01228583118971
  C   0.96262878655390      1.25046101416271     -0.02787978644874
  C   -0.40816639592291      0.84813188467142     -0.01270479678055
  C   -1.32341614605272      1.86838369884844     -0.02896484064426
  C   -2.74848304132476      1.86383761815442     -0.01096598136586
  N   -3.59135722876038      0.85638819906300      0.00242209334403
  C   -3.28358707026321     -0.44589270579135      0.01097398964540
  N   -4.38933903851009     -1.25214035613496      0.05664737353902
  H   -4.30284186308847     -2.22074403299203     -0.19089230695923
  H   -5.26559205996097     -0.81244152201591     -0.16085326489398
  C   -2.03894327014935     -1.08570849197460      0.02948319883153
  C   -0.73739746034253     -0.59437453947312      0.01685129277330
  C   0.33268591081590     -1.52196497605516      0.03104469708656
  C   0.06708099468334     -2.90787806817839      0.05193148411365
  N   -0.14115195517185     -4.05155979343120      0.06618775940335
  H   -2.10582218882786     -2.16596646677846      0.06200400372788
  N   -3.33500349218772      3.09703177699050     -0.05665487312890
  H   -4.32344472415222      3.12612150313710      0.12125091497466
  H   -2.80920975774476      3.91340932632707      0.19461010671558
  H   -0.88830449798728      2.86034594210647     -0.06614642521710
  H   1.18940873304266      2.30856059985096     -0.05146230360946
  H   3.01468367194295     -2.84379834959917      0.04773909882152
  H   4.97313111103307     -1.03705398764977      0.00411841053845
