28
Coordinates from ORCA-job ./opt_b97-3c_parallel
  N   5.93381547556680      0.45863788553456      0.34047825709489
  C   4.77509269249346      0.47057289060631      0.24777563384723
  C   3.36931969260768      0.40886076001251      0.11547736167269
  C   2.65601149653211      1.59235413138959      0.17841686886325
  C   1.29443734724055      1.82490975205061      0.06116916785417
  C   0.21615498801129      0.95116044104182     -0.04808698005535
  C   0.37820091737871     -0.52486248199939      0.00450642750351
  N   1.51101368368260     -1.20017946927703     -0.08309346600525
  C   2.78934455718290     -0.88240743761707     -0.12350351253929
  N   3.61128227628325     -1.91873315297650     -0.38143735745391
  H   3.20195500623257     -2.83516595963536     -0.42904107567735
  H   4.61098603420390     -1.82788946159296     -0.36789907675987
  C   -0.77244478524415     -1.35171930481096      0.11920562225298
  C   -0.60944592015926     -2.75367774842107      0.20009176772659
  N   -0.49745427573002     -3.90628188647704      0.27014113293219
  C   -2.04221023125149     -0.78318372676828      0.08292853232406
  N   -3.24485328613561     -1.34745184592021      0.13799380328084
  C   -4.07402129898851     -0.26754190518197      0.01854454743872
  N   -5.39132629653191     -0.40787221175952      0.02753176938658
  H   -5.79613463933599     -1.32163469421875      0.12260722614245
  H   -5.98121963281265      0.39948111993552     -0.06162455041015
  N   -3.49658900406796      0.96846701890005     -0.11135075966909
  C   -2.20190618156621      0.67430224343221     -0.07220146450022
  C   -1.08631872208370      1.50807984351480     -0.13975988289258
  C   -1.26992043009820      2.90495357013484     -0.24376936008376
  N   -1.39848075479396      4.05569818590622     -0.32935175349869
  H   1.02723597386660      2.87283373993695      0.08632375931864
  H   3.25710244841723      2.47922624836009      0.32825261040669
