25
Coordinates from ORCA-job ./opt_b97-3c_parallel
  N   5.66810432248242      0.52384804473936      0.47267739563487
  C   4.51874306602387      0.55349405426834      0.32039859816509
  C   3.10756037490153      0.59622895782645      0.13940506395773
  C   2.51104178292557      1.84940735018529      0.15804747620151
  C   1.17758539462339      2.15184793229309     -0.05619104397754
  C   0.02810384774793      1.36672589529970     -0.15522601566965
  C   -1.16650448869728      2.10451775546528     -0.30898376088669
  C   -2.37870199865693      1.48124495653007     -0.21205781452368
  C   -2.44885513825798      0.05510055070434      0.10373866654209
  N   -3.72144636516351     -0.29240124410427      0.26114844206795
  C   -4.37793038653019      0.88753143669008      0.02207808039449
  N   -3.64071275273710      1.97171721028471     -0.25519499170932
  H   -5.45641607564071      0.93213860766101      0.05978058887089
  C   -1.27867752554178     -0.71672028983344      0.19623481935676
  C   -1.42562627917574     -2.06388376743137      0.60865632683995
  N   -1.60840429043038     -3.12504844780356      1.03967421314554
  C   -0.02837817666565     -0.10815816255344     -0.01976882017976
  C   1.12708983470046     -0.92657275756978     -0.21811732095383
  C   0.93319628866149     -2.27203307675417     -0.65612994391128
  N   0.90628855105762     -3.33136781303671     -1.12844951783267
  C   2.47950686564700     -0.62752591732123     -0.11639289641587
  H   3.14362088890417     -1.46836634439754     -0.25359562326565
  H   -1.11381502044413      3.17694722980307     -0.43500035341619
  H   0.97940596995402      3.21475315731472     -0.11287936775155
  H   3.17181644241335      2.69226831084051      0.30381933282797
