26
Coordinates from ORCA-job ./opt_b97-3c_parallel
  N   4.66533633480768      1.98706018608148      0.13530026752706
  C   3.98137186613065      1.04546661560618      0.08926716878529
  C   3.12705160295098     -0.05903126125865      0.03467001770760
  C   3.48328736953762     -1.42062057713017     -0.01671262045255
  C   2.33793588362692     -2.22983169447788     -0.06449741620086
  C   1.21948698471267     -1.39582854469433     -0.04491223562103
  C   1.70675166269856     -0.00594161254023      0.01847020471760
  C   0.82215996713892      1.03288857539124      0.04514825533808
  C   -0.57386193173232      0.80853946004658      0.01039673364295
  C   -1.37822916905466      1.92672634512971     -0.01818008397572
  C   -2.77630357678764      2.04639388945170     -0.08078661974892
  C   -3.71360001075787      1.05825822080577     -0.09394402887601
  C   -3.49199081633761     -0.34569001962325     -0.01661233802964
  N   -2.35863642457260     -1.00769593766583     -0.00670681338439
  C   -1.07976000247977     -0.60375451760138     -0.03110623069789
  C   -0.14531847965346     -1.63718326923244     -0.06005573929469
  H   -0.53176516030904     -2.64617682074594     -0.08636727360322
  N   -4.62409474995927     -1.13716486927703     -0.02332102683820
  H   -4.45104100406144     -2.09915840332045      0.21488768862389
  H   -5.46718052097982     -0.75591502912717      0.36872361372796
  H   -4.74893692240405      1.37154475757606     -0.16884778435329
  H   -3.15210297968379      3.06034249310113     -0.13104611154680
  H   -0.84584522521642      2.87084976918439     -0.00056902731932
  H   1.18275392366574      2.05321581333802      0.08394936615143
  H   2.32979234031352     -3.30672231043089     -0.10825013424283
  H   4.50173230320648     -1.77810063538659     -0.01859607633647
