26
Coordinates from ORCA-job ./opt_b97-3c_parallel
  N   4.63050086735882      1.72756058021490      0.02322224580932
  C   3.91564607653991      0.81009302685664      0.01543154418122
  C   3.09880693967317     -0.32449430815624      0.00623607614609
  C   1.71345734456220     -0.37552646351322      0.00085534456826
  C   1.33350464649584     -1.79741280103566     -0.00622264249658
  C   2.53927662944447     -2.57448962227588     -0.00585127326426
  C   3.58390374268077     -1.69924925899888      0.00177459341470
  H   4.63176804589033     -1.95458972668305      0.00442428211458
  H   2.59914882486869     -3.65035090240941     -0.01034470366487
  C   0.01654582957648     -2.10224082340785     -0.00921327961955
  C   -0.96261257382678     -1.05205932977404     -0.00607247804145
  C   -2.27053802999173     -1.45663032552995     -0.00770205198742
  C   -3.48934304445366     -0.71174457413494     -0.00231749963794
  N   -3.67747379979950      0.59429524135137     -0.00028995849432
  C   -2.73006203065527      1.52823993242084     -0.00542433309813
  C   -1.34236698943602      1.47246826083877     -0.00526163038673
  C   -0.71578138680350      2.74899592229720     -0.00814807786307
  N   -0.30617958379097      3.83485045830998     -0.01193955939975
  C   -0.46322806182039      0.33847131795052     -0.00199719593359
  N   0.82484970973216      0.62425535683821      0.00157251028034
  H   -3.13597190796970      2.53307885877473     -0.00757801135354
  N   -4.62865664321315     -1.44612797258505     -0.01024501791502
  H   -4.62910424501372     -2.44558147684475      0.05202423600151
  H   -5.50421476354904     -0.95645835863837      0.03181258265473
  H   -2.40948206382004     -2.53284440326246     -0.01482274142723
  H   -0.32805838437943     -3.12897814320335     -0.01296951618731
