24
Coordinates from ORCA-job ./opt_b97-3c_parallel
  N   4.95044354553931      1.60255487037629     -0.00257545456719
  C   4.12319993239301      0.78477889489984     -0.00164141434112
  C   3.10498622443508     -0.17515820189510     -0.00034489620771
  C   1.71003169663892      0.08978623228528     -0.00003466249397
  C   1.02213242631482     -1.22050625745349      0.00142792615474
  N   -0.30484719824756     -1.34047189119119      0.00192019066663
  C   -1.05249497941215     -0.24386255459259      0.00137807806432
  C   -2.45085581414188     -0.49954208489644      0.00074806430138
  C   -2.82654818779473     -1.87574729986060      0.00050967329014
  N   -3.25375735394314     -2.95406890666984      0.00018662575391
  C   -3.51849077891109      0.39203631636895      0.00033020441963
  C   -3.47151588143743      1.77803959499150      0.00084988521331
  C   -2.35884864420693      2.60291069931824      0.00146910958670
  N   -1.06134828715290      2.31336066347682      0.00083716954131
  C   -0.45751419002380      1.13423040648394      0.00054580874504
  C   0.95848901613319      1.22343008826548     -0.00037355915358
  H   1.39110284217213      2.21396191525389     -0.00103645992254
  H   -2.55778293938606      3.66930775400089      0.00214805305010
  H   -4.42775182575003      2.28692494790964      0.00079567818548
  H   -4.50103256616434     -0.05807236931583     -0.00025798353572
  C   1.99399800060974     -2.21078604265613      0.00199212256414
  C   3.25100769791280     -1.57354888245517      0.00088483827960
  H   4.20410353950524     -2.07924183158529      0.00096880533658
  H   1.81603090431781     -3.27274632785908      0.00305901296883
