27
Coordinates from ORCA-job ./opt_b97-3c_parallel
  N   5.96753831948469      0.53019025784431     -0.00476689884578
  C   4.81087314200895      0.43864991203644     -0.00399910931888
  C   3.39179164128188      0.34134942618262     -0.00259627558086
  C   2.68085729085161      1.55273271654844     -0.00313608640041
  C   1.32565043551929      1.75199844203011     -0.00176880315666
  C   0.22653661509338      0.87078608542210      0.00057576079581
  C   0.30934675412594     -0.60098445058104      0.00204241979642
  N   -0.77179077689417     -1.39471552273781      0.00430646517470
  C   -1.97023209330544     -0.84387473792741      0.00532977546028
  C   -2.19166016093396      0.62270443201902      0.00402219610739
  C   -3.54803713489156      0.79884715720646      0.00566129685827
  C   -4.07512908524737     -0.53801205325764      0.00788407542401
  N   -5.36142151670825     -0.87473793924352      0.01006006729790
  H   -6.09058225789791     -0.18631668661550      0.01029116041994
  H   -5.61047145894326     -1.84876509553986      0.01148874390433
  N   -3.12591131811402     -1.51162616195861      0.00765537256799
  H   -4.10642512833692      1.72022614731494      0.00540362481342
  C   -1.06063454097953      1.44769198206898      0.00160871468926
  C   -1.24955953405633      2.84885345456250      0.00031178336692
  N   -1.45681239177737      3.99165104814532     -0.00069949084658
  C   1.52097870909082     -1.34171036965155      0.00126116802950
  C   1.36404590767790     -2.76141392327586      0.00269059412495
  N   1.38577776219253     -3.92115465004446      0.00351358035158
  C   2.85813385448881     -0.93784064288296     -0.00068983151189
  H   3.57481596996926     -1.74629385858006     -0.00068044669083
  H   1.04398864790871      2.79764780196607     -0.00260835737294
  H   3.28595055079235      2.44871898544897     -0.00482160405785
