28
Coordinates from ORCA-job ./opt_b97-3c_parallel
  N   -6.73589971602082     -0.11114039616448      0.00399761426044
  C   -5.57677436573442     -0.04585330018676      0.00331176715243
  C   -4.15868457648401      0.02275810387972      0.00231033327787
  C   -3.48107597664652     -1.21676472308992      0.00133073730843
  N   -2.20216645505528     -1.49911623925752      0.00018460682289
  C   -1.12486398139485     -0.69795923316042     -0.00042274183207
  C   0.08887132679478     -1.38906618050278     -0.00175764975781
  C   1.29784676882499     -0.72321244454709     -0.00259970318270
  C   1.32396484916260      0.73863213539430     -0.00205234111318
  C   2.66648806848497      1.14971206258205     -0.00314703930834
  C   3.17257551437415      2.44931587567838     -0.00316113703777
  N   3.63466207484988      3.51839166325339     -0.00319995945467
  C   3.47434812969303     -0.02974789088255     -0.00437858094752
  N   4.80368262600770     -0.05289003928602     -0.00562188159611
  H   5.30370051319795     -0.92483526641864     -0.00660476348212
  H   5.33527556028876      0.79996237527581     -0.00597123843203
  C   2.62637306289577     -1.17904368302809     -0.00401408212834
  C   3.09708848747336     -2.49252055705781     -0.00500527694967
  N   3.54357788639945     -3.56789049566661     -0.00590014889573
  C   0.13966138920891      1.44634164179535     -0.00069968520716
  C   -1.09646749572105      0.79555054989499      0.00013302791259
  C   -2.23531038463580      1.60635240993601      0.00139260751628
  C   -3.58001035240105      1.29026609070621      0.00234918161373
  H   -4.26535366823012      2.12672830370046      0.00320573440387
  H   -2.02500353996141      2.66936650890800      0.00162463410329
  H   0.16378835481667      2.52828307244705     -0.00031030614610
  H   0.04339913688716     -2.46815079222249     -0.00214312389175
  H   -4.12429923987482     -2.09099872438058      0.00153178969126
