23
Coordinates from ORCA-job ./opt_b97-3c_parallel
  N   -5.55754737897989     -0.14285502978517     -0.00137730097060
  C   -4.39887910986401     -0.07619746354929     -0.00114716583325
  C   -2.97925617872629      0.00360702767741     -0.00075265172119
  C   -2.29980059267531     -1.22002996042774     -0.00050464302306
  N   -1.00498309357535     -1.49112161073662     -0.00004923713369
  C   0.05249754515641     -0.68827153486442      0.00022984879895
  C   1.28152230913338     -1.37835918684680      0.00072886997146
  C   2.47241872515064     -0.70014894093164      0.00100193846184
  N   3.73096354839326     -1.20962315611569      0.00146510501128
  C   4.52828379748976     -0.12772172758214      0.00152890771618
  C   3.83892015093117      1.11110684963151      0.00111656669166
  C   2.49546068809302      0.77637501489943      0.00076783712640
  C   1.29648157203413      1.47724396665540      0.00030868941073
  C   0.07329202864360      0.81758109569944      0.00004446933308
  C   -1.08048969916904      1.61328815920464     -0.00032607084018
  C   -2.41747297013429      1.28784816784682     -0.00066007247516
  H   -3.11512332116746      2.11336986986304     -0.00089374804286
  H   -0.88025815620425      2.67892349643345     -0.00035288711132
  H   1.30113561667627      2.56043127808745      0.00016193172161
  H   4.27898614220643      2.09472916108933      0.00108693847857
  H   5.60281580368605     -0.25232109443812      0.00187104966155
  H   1.25099525316914     -2.45761975928329      0.00086299700275
  H   -2.92928096176739     -2.10307284992700     -0.00067645913475
