24
Coordinates from ORCA-job ./opt_b97-3c_parallel
  N   6.03801737587279      0.90696042217890      0.00310192609455
  C   4.88580201667652      0.77069277606171      0.00207489748195
  C   3.47512561711901      0.59997270827090      0.00153653012155
  C   3.01635310354690     -0.72380265025856      0.00210395737404
  N   1.78779090721883     -1.20358237851064      0.00148460241147
  C   0.61085268042231     -0.59922360632819      0.00054419043186
  C   0.31920951647110      0.86185028437197      0.00006433046722
  N   -0.91952587728295      1.35613183104116     -0.00061392470554
  C   -1.92852409755080      0.49294499529876     -0.00104347424981
  C   -3.30816626521522      0.70180190901980     -0.00180949408277
  C   -4.00300489296132      1.91555514455523     -0.00229167648967
  N   -4.59584554212855      2.91496340451346     -0.00263117501004
  C   -3.87324444298791     -0.61591014159424     -0.00199634170628
  N   -2.97254490910834     -1.60235748365980     -0.00140687509614
  C   -1.77422150570971     -0.97254078074598     -0.00082491141224
  C   -0.50265344343274     -1.50101179732943     -0.00000077462506
  C   -0.28020890740824     -2.89963886077883      0.00050078601231
  N   -0.13435758946309     -4.04909677272887      0.00119386418514
  H   -4.93125224877564     -0.83438522294542     -0.00259452999451
  C   1.32115987290346      1.85309146687005     -0.00008745184273
  C   2.69162799973607      1.76289751734171      0.00049305174989
  H   3.23200674168547      2.69905833497152      0.00015513987875
  H   0.90522915988672      2.85217837487638     -0.00078531194373
  H   3.78407777918578     -1.48946252009198      0.00303120955016
