24
Coordinates from ORCA-job ./opt_b97-3c_parallel
  N   -5.74523052840974      0.02877668647176     -0.00250953261221
  C   -4.58508505221306      0.05263381348726     -0.00162671807843
  C   -3.16468307530290      0.10343698476836     -0.00098082629860
  C   -2.59482859967221      1.40162150562485     -0.00071265006844
  N   -1.34467240280005      1.77954853510304      0.00000496259637
  C   -0.19835779620377      1.08166919331703      0.00054383343936
  C   0.94043771401698      1.89085757156775      0.00139084363852
  C   2.20851968599949      1.34759506111338      0.00189964623838
  C   3.50609053894526      1.85193802890784      0.00270570153702
  C   4.33820875847629      0.72142166393495      0.00270185010551
  N   3.67334224028698     -0.46538825870971      0.00194762008011
  C   2.38011837559004     -0.12050224985547      0.00145888496736
  C   1.26913083550809     -0.95642238271208      0.00066039609450
  C   1.46778718252390     -2.35975618678186      0.00030521885357
  N   1.59619694449086     -3.51264416373638      0.00004734797990
  C   -0.04355400217573     -0.40984193912774      0.00025256012990
  C   -1.10517227153296     -1.30210028679487     -0.00024628545857
  C   -2.48205480411430     -1.10083321486246     -0.00072100408801
  H   -3.08717210152900     -1.99666523449230     -0.00097487963238
  H   -0.81939398558537     -2.34619446441539     -0.00026065448159
  H   5.41908509968886      0.72412805226552      0.00322481911355
  H   3.81231453334909      2.88442858357548      0.00321870873831
  H   0.77578929091224      2.95865440780030      0.00158056493278
  H   -3.30798765614886      2.21931803335068     -0.00109268402690
