25
Coordinates from ORCA-job ./opt_b97-3c_parallel
  N   -6.17133981603584     -0.45655101775521      0.05334850259581
  C   -5.02065233644889     -0.30875577843301      0.03148454649581
  C   -3.61304425081001     -0.11938490253070     -0.00101376824969
  C   -3.16920788468587      1.18265268876609     -0.27733614637182
  N   -1.95995511601881      1.69656705763572     -0.20976381217562
  C   -0.76769946239553      1.14327768994935     -0.03947938122037
  N   0.20987005643989      2.06951801155859      0.07890955354390
  C   1.45793527285021      1.66946128641349      0.09709256019870
  C   2.62126002386610      2.46834111115441      0.19293292223777
  C   3.70432469525246      1.62625353712779      0.09828519247310
  C   3.28000957010144      0.25326021838066     -0.05594978490746
  C   4.15352894963200     -0.83360925371810     -0.18074807795551
  N   4.91213172011409     -1.70863404564920     -0.28445033887405
  C   1.89169092817531      0.25284048403609     -0.04858740529754
  C   0.89651705273041     -0.71709742031896     -0.08220287590065
  C   1.22924510252523     -2.09405505560753     -0.12881098185486
  N   1.46876789977383     -3.22858478137136     -0.16391488074199
  C   -0.46020795324735     -0.31774864889355     -0.02615966361181
  C   -1.43054741995607     -1.30822393891001      0.15156336211048
  C   -2.80660973368202     -1.23975400281992      0.21768712349495
  H   -3.32087325156957     -2.16979237702974      0.41424030157659
  H   -1.03546714496428     -2.31007329788055      0.26599248292032
  H   4.74186689271717      1.92016305954319      0.12824923810360
  H   2.63187131655133      3.53890641259041      0.30147272713442
  H   -3.94145641481527      1.90307473226202     -0.52485700402404
