22
Coordinates from ORCA-job ./opt_b97-3c_parallel
  N   -5.56522340499943     -0.11007726415753     -0.00236233967784
  C   -4.40655346036353     -0.04615948735321     -0.00178671667290
  C   -2.98648109672746      0.01951481871924     -0.00133730253637
  C   -2.31512006884045     -1.22273657304251     -0.00075492306069
  N   -1.03536429997322     -1.50529963440093     -0.00019267094098
  C   0.04502829410377     -0.71562999141470     -0.00007876488536
  C   1.25405014223001     -1.42040634633395      0.00063897362852
  C   2.45460084764305     -0.74133119296719      0.00077710078321
  N   3.72270881802826     -1.19271775195154      0.00138717597964
  C   4.43990225907982     -0.04548945734815      0.00112507667393
  N   3.76644322020248      1.13140814331250      0.00040536754730
  C   2.48419567085625      0.72777120809354      0.00015534125971
  C   1.31009257399895      1.45153171632569     -0.00052553358142
  C   0.07700014636067      0.79064417457632     -0.00065758450436
  C   -1.05996321008914      1.59628593765689     -0.00124658188968
  C   -2.40903148787721      1.28447566159936     -0.00152980619344
  H   -3.09203828379304      2.12251879936687     -0.00197712742492
  H   -0.84992659100368      2.65945630394865     -0.00153621004958
  H   1.33944559057782      2.53315592018972     -0.00094581448491
  H   5.52034900972763     -0.06565574410954      0.00148329990088
  H   1.21027843828506     -2.49918717125244      0.00104724614819
  H   -2.96013763682664     -2.09521258525711     -0.00073333291897
