25
Coordinates from ORCA-job ./opt_b97-3c_parallel
  N   -4.24146246800471     -2.48291940337447     -0.31588171468185
  C   -3.70041394160523     -1.46112810008458     -0.19162290053085
  C   -3.00992521818351     -0.25305708537828     -0.04790676422620
  C   -3.52728966567267      1.00692043407329      0.16198252152115
  C   -2.46426780061809      1.96769885780974      0.26015030797938
  C   -1.26981655829723      1.30642648041005      0.11306096844834
  C   -1.56362953765862     -0.11035548848347     -0.08597146034236
  C   -0.57843846448955     -1.02074640805086     -0.25110686755458
  C   0.79155959940094     -0.60832017169093     -0.15458004526498
  C   1.75605311083469     -1.58642213654347      0.02629786564586
  C   1.39218409000736     -2.95609854843709     -0.01437558128687
  N   1.16573897177141     -4.09455214828498     -0.04691093415580
  C   3.12497297440296     -1.36762636976402      0.46464822655982
  N   3.88403951562559     -0.34629092932473      0.29779004477279
  C   3.49124716640761      0.79674832826610     -0.35076122776633
  N   2.33378192087310      1.35255277891318     -0.42817950781152
  C   1.11104022667306      0.83139540626689     -0.12538710789120
  C   0.07347118568911      1.74203641904725      0.02941771548315
  C   0.34634682908300      3.13080237761766      0.05006992759969
  N   0.48137446734513      4.28233589586972      0.08390601196860
  H   4.32041013809986      1.36329402425591     -0.75931668865701
  H   3.56135870019814     -2.20376599269824      1.00530494902795
  H   -0.80828834685551     -2.06988195097570     -0.37830010786822
  H   -2.59283322211306      3.02699937859083      0.41134781807423
  H   -4.57778888091445      1.23701448846968      0.24005019705729
