29
Coordinates from ORCA-job ./opt_b97-3c_parallel
  N   -5.57029668218852     -1.94326691941959     -0.00034211267512
  C   -4.46883894952477     -1.57308608580835      0.00005977658919
  C   -3.14828148257681     -1.06202635515490      0.00033989603835
  C   -2.12523883103176     -2.01986273351844     -0.00094928170486
  C   -0.76289716719401     -1.87838046480967     -0.00113666286245
  C   0.05419969053816     -0.73677037352421     -0.00016052081468
  C   -0.45273171793933      0.63751983971662      0.00133048256709
  N   0.38360517765761      1.71434202903242      0.00212658867643
  C   1.67418180681848      1.52120904033922      0.00156353790490
  C   2.30744859883025      0.18340950357458      0.00006676230338
  C   3.67819576329069      0.38849528984293     -0.00019916380804
  C   4.70746826577458     -0.55764824215101     -0.00151847775756
  N   5.59712204774561     -1.30735734887239     -0.00243852740819
  C   3.89620759667268      1.82783797017185      0.00112408962729
  C   2.70694723314804      2.50177490656810      0.00218398689259
  H   2.55200064262230      3.56653037310045      0.00326932675663
  H   4.88003188295891      2.27020708732121      0.00121294637233
  C   1.45741693001542     -0.92145802449714     -0.00073852108335
  C   1.99412222637808     -2.23189149203208     -0.00214513772345
  N   2.41153253812506     -3.31455759630997     -0.00303764249748
  C   -1.78980445765486      1.05891289656336      0.00212497926076
  C   -1.94648535795035      2.47622544329549      0.00339387239868
  N   -2.30183992397282      3.58240463930660      0.00431210636444
  C   -3.03768069445151      0.34612667803317      0.00183288244009
  N   -4.16839455982277      1.07603847681966      0.00309375445996
  H   -4.14009108063822      2.08071156464550      0.00374173388958
  H   -5.06856473380818      0.62994496499586      0.00255780872606
  H   -0.22464955309001     -2.81658732937832     -0.00226033090963
  H   -2.47845118943195     -3.04162618755091     -0.00196721482289
