25
Coordinates from ORCA-job ./opt_b97-3c_parallel
  N   6.13654035721270      0.71569150501633     -0.00040775046633
  C   5.01431655213432      0.42006714737538     -0.00005449363466
  C   3.63596445784089      0.07870406027063     -0.00009571228220
  C   2.72350581812955      1.17860868553999     -0.00026868134781
  N   1.42641989256900      1.19526345738588     -0.00033826256730
  C   0.51267443847707      0.20875774327118     -0.00032394183401
  C   0.77321684008054     -1.25555247299967     -0.00036169210492
  C   2.03427697658132     -1.82975010135031     -0.00022360228929
  C   3.30926744197637     -1.26136019602278     -0.00006134496013
  H   4.13560131029638     -1.95878189280571      0.00007004598774
  H   2.03375887864751     -2.91282125328111     -0.00023167735906
  C   -0.31796478250878     -2.15182909370109     -0.00045021985401
  C   -1.60110152384477     -1.68597159392859     -0.00043713071010
  N   -2.75290718963509     -2.42216658377780     -0.00046270035085
  C   -3.72881158667637     -1.52551585713702     -0.00033575936604
  C   -3.27017994752189     -0.15869190743701     -0.00024886492017
  C   -4.10410543632475      0.96608340430702     -0.00005766716646
  N   -4.84750027179818      1.85920230191193      0.00014266215455
  C   -1.88240471251476     -0.24847503012673     -0.00031609281507
  C   -0.81726785833287      0.66424150428567     -0.00033323447272
  C   -1.06649851403747      2.05978191132036     -0.00040379479149
  N   -1.32645500282941      3.18959632531538     -0.00073442786151
  H   -4.76709832665832     -1.82444174122879     -0.00030152947094
  H   -0.13779375942651     -3.21797703212633     -0.00050144310559
  H   3.18642922206350      2.16027145912313     -0.00034044721153
