28
Coordinates from ORCA-job ./opt_b97-3c_parallel
  N   -5.58889052607438     -1.91818621897741      0.00041038387740
  C   -4.48510374310224     -1.55607177617860      0.00036608159444
  C   -3.15982906918054     -1.05517111440188      0.00025970991094
  C   -2.14776572942981     -2.01766315374434      0.00036970319818
  C   -0.78157409258690     -1.88728942341184      0.00031457507353
  C   0.04228311200438     -0.75466591880366      0.00013961485059
  C   -0.44805426783833      0.62697921403761     -0.00002852960565
  N   0.39300251771227      1.69578189113342     -0.00017117864825
  C   1.67925369108727      1.48553739897288     -0.00016970121592
  N   2.62717212038758      2.46906423858860     -0.00029659161365
  C   3.78044685851495      1.81993110353266     -0.00025173295559
  C   3.66253588764407      0.37924008323580     -0.00011026519682
  C   4.72959872711785     -0.52464039310159     -0.00009606215628
  N   5.64502856170778     -1.24144801798905     -0.00040944797002
  C   2.29533351092401      0.14373560414678     -0.00003032206734
  C   1.44567789195345     -0.95736169373885      0.00013798728325
  C   1.97564049315672     -2.26988644240104      0.00034394280809
  N   2.39436474265790     -3.35210220101665      0.00067016164430
  H   4.72063955435556      2.35302841801904     -0.00033255376202
  C   -1.78539775850134      1.05751234034728     -0.00007176308977
  C   -1.93406429304582      2.47506192735940     -0.00028305328557
  N   -2.29165575279038      3.58037300754373     -0.00048487258310
  C   -3.03686609208318      0.35580328749816      0.00005326335964
  N   -4.16235941175110      1.08984835396396     -0.00002331820920
  H   -4.12793630599744      2.09489605489544     -0.00019190413730
  H   -5.06563399107897      0.64958812353589      0.00003437751806
  H   -0.25156376713399     -2.83024850604733      0.00043120858224
  H   -2.50779505472938     -3.03716235839842      0.00052363189580
