28
Coordinates from ORCA-job ./opt_b97-3c_parallel
  N   1.24554463542670      3.69125629912684      0.04400887202142
  C   1.36491690699287      2.53509320915716      0.03264357037411
  C   1.71991013194752      1.16340697603560     -0.02302224295436
  C   0.65705161218635      0.25528273056538      0.10059944605329
  N   -0.53955487514945      0.81907153442771      0.33942146904588
  C   -1.59553719813674      0.04828417230713      0.15778457192560
  C   -1.47468101661855     -1.34522789491244     -0.36044259166792
  N   -2.67775297974816     -1.89518230154760     -0.59961650128526
  C   -3.56007984511768     -0.94888055775633     -0.22170649455203
  N   -4.86705094587025     -1.15005015489923     -0.31079652116859
  H   -5.52215480294452     -0.44358403122370     -0.02516106663392
  H   -5.20705862293816     -2.02355692720507     -0.67304528577823
  C   -2.95889567731334      0.27618142898578      0.27775461596831
  C   -3.67898930051951      1.38775517020798      0.70809356668007
  N   -4.36156954646840      2.26689865180908      1.05135704728118
  N   -0.31291001571424     -1.94142747289628     -0.47563838372350
  C   0.78099175334675     -1.21294304569904     -0.14327543524896
  N   1.87152576004404     -1.92742444361154      0.00402454566181
  C   3.13691383397149     -1.55281572274491      0.18896527820654
  N   3.92737402956392     -2.56541514364075      0.63352271636620
  H   3.55198252651553     -3.49528212764695      0.57421733500816
  H   4.92354707562410     -2.46226708402915      0.67886619826193
  C   3.73487946226276     -0.32266431595317     -0.09677840611932
  C   3.11541890126212      0.91257136061717     -0.22682959147500
  N   3.89625310957827      1.97846535224844     -0.53854564880533
  H   4.89337658222900      1.88994995876634     -0.48434783132005
  H   3.52528817625415      2.91006324592327     -0.46142947582251
  H   4.81541727223981     -0.32417128530885     -0.18245798059939
