25
Coordinates from ORCA-job ./opt_b97-3c_parallel
  N   -5.73408858595032     -1.01727861157267     -0.19448274364752
  C   -4.58466106052351     -0.84928120827325     -0.14528595255658
  C   -3.20080039802257     -0.57301471318692     -0.06782295459044
  C   -2.32372208102930     -1.65867084549083     -0.12766810879643
  C   -0.95247854947160     -1.68522150125091     -0.04715783507045
  C   -0.01741432407110     -0.63816392304032      0.03008547199181
  N   1.25402374954641     -1.02871906124556      0.09581866114292
  C   2.19682222190073     -0.09038149019235      0.02274853807410
  C   3.58431956444472     -0.17968119264144      0.08302630996636
  C   4.38197703622687     -1.31242704150354      0.26051894633838
  N   5.06735783678615     -2.24058716290352      0.40700624177767
  C   4.04628366442739      1.18090997155656     -0.08590418709204
  N   3.08325218319964      2.07362514185586     -0.23673200230549
  C   1.92042112272334      1.34111125264817     -0.17124903525993
  C   0.63140118689814      1.76179074184182     -0.21765436702525
  C   -0.41141430458391      0.80108367214506     -0.06987373712783
  N   -1.61652354839172      1.32692441800380     -0.00525806179708
  C   -2.83430510094218      0.79156625362657      0.10625442727299
  N   -3.79885652994437      1.70081605789509      0.35856391251716
  H   -4.77144082399565      1.45363351470548      0.39052685986549
  H   -3.54247622822734      2.67091974869797      0.34070977334805
  H   0.36257637848043      2.80359935641091     -0.31056092146167
  H   5.08640837732612      1.47570608007534     -0.09445348786072
  H   -0.48766412649467     -2.66183379175374     -0.06415226561011
  H   -2.80371731250680     -2.62162091470741     -0.23693262179384
