29
Coordinates from ORCA-job ./opt_b97-3c_parallel
  N   -6.48036601768654     -0.50350486843201      0.00294496361691
  C   -5.31845247984980     -0.47764344414453      0.00205680226740
  C   -3.90689763170410     -0.36936423403279      0.00123346253513
  C   -3.18966687054276     -1.56561546581134     -0.00098718484987
  C   -1.83447264309423     -1.80611458462845     -0.00225568068837
  C   -0.73926801802112     -0.93401093797233     -0.00176429086425
  N   0.45894203109417     -1.55191799222995     -0.00342710816278
  C   1.52849102849866     -0.77951000317930     -0.00307484674955
  C   1.42818675021584      0.69725543867355     -0.00099011898579
  N   0.27212286340155      1.31666850245190      0.00064739183861
  C   -0.84395771477343      0.53512533747361      0.00034689815108
  C   -2.01685182521664      1.27682262658416      0.00225321033980
  C   -3.38033292496857      0.95029386114261      0.00277884287123
  N   -4.25046050537973      1.98775630807516      0.00506354683938
  H   -3.91940895276796      2.93326889131819      0.00555346302102
  H   -5.24383030745176      1.84213614526780      0.00503634226614
  H   -1.80443474755566      2.33979411926718      0.00362869206157
  C   2.73223007880788      1.22264054447242     -0.00114789231456
  C   3.14835503444452      2.55413041550158      0.00039359212650
  N   3.56601528825900      3.64081532956393      0.00157778443672
  C   3.62348410823710      0.11155610955159     -0.00324868492223
  N   4.94740498818178      0.18989912414509     -0.00400471885964
  H   5.40987768061695      1.08278825288244     -0.00311694157565
  H   5.51249198909112     -0.64182399237920     -0.00553749047472
  C   2.88238172062783     -1.12130785301520     -0.00444192211634
  C   3.48231251316656     -2.38032321242065     -0.00657776561363
  N   4.05732612600757     -3.39260145543810     -0.00836930482764
  H   -1.53789821505159     -2.84645850262771     -0.00393114611222
  H   -3.80857018928667     -2.45284785195963     -0.00185004435424
