29
Coordinates from ORCA-job ./opt_b97-3c_parallel
  N   5.77949075067117      0.32902702388874     -1.11661879434262
  C   4.67699515866929      0.45573698364328     -0.77429141077037
  C   3.33275404435797      0.56815975811275     -0.33686606651733
  C   2.82422675053829      1.84145287947986     -0.25122878664876
  C   1.56072219506931      2.27659104871998      0.15169694047529
  C   0.37767076813390      1.57570411332418      0.28663447737603
  C   -0.78716724652608      2.37796650146229      0.48975272280876
  C   -2.02075446059094      1.83793896182250      0.35072180901859
  N   -3.24385586505425      2.48742111453418      0.43286833402514
  C   -4.12710415088049      1.57233672097827      0.12109737579776
  C   -3.54355696908613      0.27009318402774     -0.19086922661702
  C   -4.28088007886597     -0.86073791753724     -0.55485455435440
  N   -4.95481849018470     -1.76087442944622     -0.85094911800493
  C   -2.17986369049844      0.44163076369340     -0.02709220519764
  C   -1.03895523750605     -0.38773772913191     -0.13849204430324
  C   -1.20864685138413     -1.72322576003120     -0.57544191857035
  N   -1.36241983470498     -2.78648569884224     -1.01454001780607
  C   0.23552898687622      0.13089090668834      0.11051016908509
  C   1.32700095498731     -0.78106259198311      0.37045502228251
  C   0.99258310100096     -2.01114827706675      0.98172224964670
  N   0.85575658228290     -3.01259304807788      1.55761445161366
  C   2.70258794819446     -0.64927799558550      0.11505980960125
  N   3.51530951652294     -1.70578963583131      0.30360877562911
  H   4.50875974573248     -1.62909699755293      0.18244111046750
  H   3.14584787009598     -2.59966257442285      0.57766037812889
  H   -5.18672142562662      1.78459026215632      0.10349052610818
  H   -0.67588655439306      3.43761675577623      0.67161516678820
  H   1.47630913879470      3.34894037776370      0.26952640552398
  H   3.51602025307207      2.62936482343786     -0.51790634234427
