27
Coordinates from ORCA-job ./opt_b97-3c_parallel
  N   -5.52448326753923     -0.41679114604034     -0.24549969612528
  C   -4.36751052047667     -0.48724097356327     -0.15528240441188
  C   -2.95729215817794     -0.50888901452363     -0.04570344568259
  C   -2.34579177442757     -1.72945112280458     -0.05362466647629
  C   -0.97820717718283     -2.05222050170573      0.02819925120577
  C   0.13616086543792     -1.24724040798340      0.06059054563414
  C   1.39835592986398     -1.92552137849703      0.08813930110042
  C   2.56673474507265     -1.24313121756102      0.03701012552322
  C   2.56056555856362      0.22364450457977     -0.03543008864516
  C   3.86215587564086      0.63748542834265     -0.08016040424829
  C   4.70805806156262     -0.54487555656148     -0.03769501158524
  C   3.94389851548341     -1.67153153180747      0.03225905413057
  H   4.28388118881052     -2.69298964969912      0.07425031481860
  H   5.78723897004915     -0.51695070067244     -0.05958124780913
  H   4.20959547916370      1.65657646032201     -0.13453096209765
  C   1.31832960428487      0.90839656576693     -0.02684444194657
  C   1.32035082638536      2.32291931031487     -0.06139114714568
  N   1.40363741056472      3.48046910293670     -0.09433898428519
  C   0.10512680474607      0.22755689837639      0.02579011772165
  N   -0.99674211273358      1.01099694268532      0.07413349504310
  C   -2.26881369319728      0.78276751097099      0.08293825098165
  N   -3.07226380389374      1.86826636692351      0.24559932802469
  H   -4.05580381926570      1.82837027556620      0.04854182147942
  H   -2.61917116976695      2.76418476893891      0.19704618140842
  H   1.38965137848640     -3.00753779587768      0.13305499629788
  H   -0.78000557972751     -3.11667059022013      0.04298670299058
  H   -3.00900478072671     -2.58070056170662     -0.13555375160129
