30
Coordinates from ORCA-job ./opt_b97-3c_parallel
  N   -5.56680655248360     -1.99933575093063      0.00079342380862
  C   -4.47318295222584     -1.60529416016852      0.00052259504210
  C   -3.16478413931074     -1.06703893726506      0.00058965100056
  C   -2.11756215580819     -2.00445422384859      0.00222685289055
  C   -0.76627700715713     -1.82642514360237      0.00220393363113
  C   0.03834492699745     -0.66595450188193      0.00075961739891
  C   -0.49144181400722      0.70546801527350      0.00008046882832
  C   0.44667768924689      1.78377679837206     -0.00016008833475
  C   1.78745946982399      1.57610026169415     -0.00041977468110
  C   2.33151707258881      0.22300039863244     -0.00032598765487
  C   3.71548593740404      0.34265638469633     -0.00092905499424
  C   4.68954942924990     -0.65988037359756     -0.00130452905979
  N   5.54782131954057     -1.44558540018010     -0.00216499678407
  C   4.03157647215430      1.76763380354336     -0.00131195392646
  C   2.88580512292735      2.50091566714102     -0.00100420865750
  H   2.80045885633986      3.57457930391969     -0.00122272528488
  H   5.04092232340160      2.14703221999985     -0.00180793873056
  C   1.43569387515310     -0.85796309794332      0.00045806685956
  C   1.95784591858143     -2.17463459419140      0.00108077273156
  N   2.37117009822178     -3.25925340828227      0.00172090219296
  H   0.08101885874042      2.79895137752328     -0.00040212077037
  C   -1.84409897404194      1.08748627049671     -0.00051383225454
  C   -2.09146537403787      2.49001887620636     -0.00105018273983
  N   -2.40253794137274      3.60910434449626     -0.00129539867120
  C   -3.07932681046396      0.33650622776548     -0.00095253794523
  N   -4.23215659407074      1.03956314564059     -0.00280458449146
  H   -4.24340508661402      2.04301459301885     -0.00324384341592
  H   -5.11735031949261      0.56461981340847     -0.00251244609798
  H   -0.20827950438868     -2.75211006005908      0.00341635920798
  H   -2.44636276089622     -3.03429482217758      0.00350052370251
