29
Coordinates from ORCA-job ./opt_b97-3c_parallel
  N   -5.62145590985047     -0.96692891758581     -0.02542067770415
  C   -4.46078154906092     -0.89416859628933     -0.01851626310154
  C   -3.05294597737714     -0.75235462500575     -0.00985295502100
  C   -2.32527744032201     -1.94510597544372     -0.00690868897891
  C   -0.97085468333113     -2.17038475739375      0.00094512796749
  C   0.12034799222566     -1.29322522171027      0.00896607801284
  C   1.39585738576219     -1.85943090392276      0.01593230050056
  C   2.52413256954011     -1.06283505113253      0.02464299894479
  C   2.30904948775968      0.41590364942795      0.02628890540907
  N   1.09953997513676      0.96873146649542      0.01954261188139
  C   0.01547209653307      0.18682850740921      0.01102460550284
  C   -1.18345175367572      0.94015677387632      0.00434536050656
  C   -0.96443772168646      2.34757371021939      0.00848147455129
  N   -1.00248136070801      3.50952171610480      0.01061764650088
  C   -2.56177757364262      0.57902677892804     -0.00537991922615
  N   -3.47318451651512      1.57876802202410     -0.01195714319598
  H   -4.45618472360764      1.37769443968472     -0.01337523782699
  H   -3.18439275663645      2.54046123259277     -0.00401149308236
  C   3.54436474036291      1.03119375843280      0.03558452022126
  C   4.51456335760325     -0.00770440190998      0.03969547350559
  N   5.84098688160850      0.18501211721509      0.04902426235149
  H   6.47961647441037     -0.58803317940204      0.04999753059548
  H   6.23169883516515      1.10854944539214      0.05196306777887
  C   3.88482463086902     -1.29019024820127      0.03297281573603
  H   4.39525376005358     -2.24019667888422      0.03440665980968
  H   3.73712579904895      2.09088310205709      0.03907287223493
  H   1.48248413463848     -2.93904607467193      0.01451113215361
  H   -0.69501148470957     -3.21851194177979      0.00106429761073
  H   -2.93867087979450     -2.83609168542673     -0.01172388113829
