26
Coordinates from ORCA-job ./opt_b97-3c_parallel
  N   -6.45855097480259     -0.03211949500665     -0.00221884920914
  C   -5.29882487649173     -0.01146938851990     -0.00185280572871
  C   -3.87491298916566      0.01237400215198     -0.00147892206024
  C   -3.28036801584452      1.27224865041297     -0.00231708455675
  C   -1.93117881200882      1.58696894511916     -0.00220416481886
  C   -0.78099726434858      0.79888608753965     -0.00127950093206
  C   0.45236506603206      1.48470711361796     -0.00149435783758
  C   1.61691352949401      0.77291088250677     -0.00062447749576
  C   1.53791328658303     -0.69459349006784      0.00050317675044
  N   0.40028381315784     -1.36802418568845      0.00073443226851
  C   -0.74994793844408     -0.67777328770589     -0.00010748104252
  C   -1.88627750486462     -1.50723720673108      0.00026252565630
  C   -3.23539327345999     -1.23562051511665     -0.00030784633712
  H   -3.88888180019614     -2.09654369484381      0.00021183352409
  H   -1.61745188835121     -2.55564394809415      0.00117142266229
  C   2.85844550991741     -1.18747798293081      0.00123474784829
  C   3.24500962718208     -2.53478924729048      0.00238952725795
  N   3.57079884082487     -3.64992406009174      0.00344675784453
  C   3.72517070865110     -0.07023574957449      0.00058335012511
  C   2.98965365464109      1.12402975594588     -0.00054416051336
  C   3.49144128189324      2.43205421950104     -0.00145023441288
  N   3.86605265856705      3.53274091638020     -0.00224475088061
  H   4.80119126619500     -0.13132683234522      0.00091443946481
  H   0.46126745448844      2.56723466759883     -0.00234410402840
  H   -1.73225490589482      2.65264814182154     -0.00298653653767
  H   -3.95860667785447      2.11387205821116     -0.00316370981061
