29
Coordinates from ORCA-job ./opt_b97-3c_parallel
  N   5.33084933232365      0.65600019478528      0.76678234630842
  C   4.38013562800544      0.04087821338742      0.50422408267208
  C   3.25349607909280     -0.72788329609485      0.18675709614469
  C   3.24678991671112     -2.08011656533458     -0.11899042026603
  C   1.92071263380894     -2.52461843522356     -0.40428687969501
  C   1.07415040223086     -1.45151643629372     -0.26805967377742
  C   1.88478159567846     -0.28128973688233      0.09336424706824
  C   1.29905157549762      0.94669538991121      0.19887213210745
  C   2.05931661055671      2.11246350555631      0.46087821822504
  N   2.62858071908856      3.09907540300554      0.68103197080512
  C   -0.13049381245341      1.09487698834589     -0.05698514915639
  C   -0.58004635319455      2.35370305603851     -0.34843028632594
  C   -1.85983444410702      2.73499231427196     -0.83137310665263
  N   -3.01594292419848      2.18086471373154     -0.67161924573717
  C   -3.24576390113256      1.03718324711727      0.02822957348204
  N   -4.48696502958452      0.98809290460905      0.54520330904260
  H   -4.84245967811808      0.15657096558691      0.98362586561686
  H   -5.13520074859056      1.70101259722400      0.26391529421117
  C   -2.36693857027972     -0.05696254590618      0.16004723118690
  C   -2.96132566601793     -1.19049168070873      0.75625365044865
  N   -3.54541820380056     -2.01875339047604      1.32776822322176
  C   -0.96347299686861     -0.10925699085351     -0.14974862680423
  C   -0.33107490889529     -1.33346974092895     -0.36137438092999
  C   -1.04900066080691     -2.50214824436102     -0.70772673501751
  N   -1.55197037969531     -3.48353408562317     -1.07017411235657
  H   -1.88078652199228      3.66375799304352     -1.39526353531351
  H   0.14900762335510      3.15308138372408     -0.33848083698830
  H   1.63710034689315     -3.53061765833200     -0.66474640796577
  H   4.12726593509290     -2.70269693402033     -0.13689623675872
