25
Coordinates from ORCA-job ./opt_b97-3c_parallel
  N   3.96662451423576      2.69176093936357      0.01098988556231
  C   3.51242375747396      1.62081896932374      0.00687569721952
  C   2.96832944276048      0.33231834356380      0.00104697196321
  C   1.58224426254934      0.00035701026812      0.00609504253698
  C   1.48991564367645     -1.48650471536516     -0.00564645039178
  C   2.78638246703567     -1.98246141314089     -0.01610006808327
  C   3.66882800042109     -0.88366791088408     -0.01224043343961
  H   4.74576741816360     -0.95496890347509     -0.01853686759091
  H   3.07900920933836     -3.01974149125131     -0.02588471837425
  C   0.22643086767188     -2.04013360097083     -0.00501571369806
  C   -0.90009325572493     -1.21679269029611      0.00631010352302
  C   -2.16759603442457     -1.81488947705477      0.00635581967603
  C   -3.43639807092890     -1.26705798677799      0.01007824032464
  N   -3.87123366958717     -0.00911827401671      0.01021336061613
  C   -3.11128754470734      1.07537438347737      0.02874919471886
  N   -3.80207154698801      2.25094965611522      0.07722406806032
  H   -3.34939314373421      3.11653109043078     -0.15006964995760
  H   -4.79202496187492      2.19449251943108     -0.08410144007143
  C   -1.69420013540444      1.19198186623909      0.03756191185606
  C   -0.69405084694481      0.24895539315455      0.01850074480849
  N   0.55438731405782      0.80635431134325      0.01867339374375
  H   -1.30371811184747      2.20232078239719      0.06023830564359
  H   -4.24658159389853     -1.98900863505886      0.00404648033242
  H   -2.15700353232664     -2.89920556109139     -0.00107274922636
  H   0.09094301860752     -3.11469704092463     -0.01308360275208
