29
Coordinates from ORCA-job ./opt_b97-3c_parallel
  N   -5.90611902632897     -1.49194591514773     -0.00268272610152
  C   -4.76352454775505     -1.27819056042390     -0.00275762288892
  C   -3.38377284389321     -0.96210134293549     -0.00207819166136
  C   -2.51155511872354     -2.05346892168104     -0.00503387225831
  C   -1.14133602582035     -2.10664569209519     -0.00523867222249
  C   -0.17111341018837     -1.09427127403374     -0.00265119505132
  C   1.16793203040134     -1.49620750333607     -0.00374728038829
  C   2.16536798354695     -0.54887222603182     -0.00141696890631
  C   1.77497591627549      0.87578672909705      0.00216939981581
  N   2.84319789365025      1.68937411939096      0.00412302082983
  C   3.90736592671894      0.86174476859463      0.00197511396597
  N   5.14857364290346      1.33256250295973      0.00306063899474
  H   5.29735008713572      2.32629485262778      0.00551919555936
  H   5.94138894595724      0.71597161835542      0.00141183316838
  C   3.55682044339052     -0.54439478238319     -0.00154102986592
  C   4.45929987529033     -1.60421442171512     -0.00429619071085
  N   5.25259273054868     -2.45797895889771     -0.00696432119262
  N   0.51975679766590      1.27577161057591      0.00325871414190
  C   -0.46090377561860      0.35186566772687      0.00102472882968
  C   -1.73770725627201      0.95275971958749      0.00272758322233
  C   -1.69948551039457      2.37658197136171      0.00633740976339
  N   -1.89465645640620      3.52212325739114      0.00923692566208
  C   -3.06455134375336      0.41995353915517      0.00155522197427
  N   -4.08754364941416      1.29660555576184      0.00412497863354
  H   -5.03953506077266      0.97708201745712      0.00322404237665
  H   -3.92008276974282      2.28761052258897      0.00647542638922
  H   1.40198962241489     -2.55248924580277     -0.00643920807578
  H   -0.73378187790496     -3.11019277059813     -0.00787692706070
  H   -3.00789409081101     -3.01447842994995     -0.00754445284278
