22
Coordinates from ORCA-job ./opt_b97-3c_parallel
  N   4.80925588109264      1.48162393490842      0.84133468555618
  C   3.95659891835349      0.73969971609872      0.56716843859616
  C   2.95652475189359     -0.17924446145674      0.23941025143197
  C   1.61058629781551      0.05848922110441      0.05800775402039
  C   0.98702980505117     -1.24802364754982     -0.30718185368036
  C   2.02212918323450     -2.23148470417061     -0.37430901525160
  C   3.18167928843980     -1.60348703117579     -0.02876001807910
  H   4.15502891964488     -2.06288425975411      0.04402525712486
  H   1.88407424360208     -3.27196952400926     -0.61244424478636
  N   -0.29791089584343     -1.37797090588871     -0.47063188777209
  C   -1.03042717297208     -0.24265169790398     -0.26920334072145
  C   -2.36399000610058     -0.43671824165695      0.05761679077526
  C   -2.86901448304028     -1.76105436158706      0.11565597264862
  N   -3.38533317077328     -2.79832338237452      0.18072646633221
  C   -3.26753239623531      0.58079155822437      0.53870699930364
  N   -3.26100148825680      1.84880903806460      0.30239381889654
  C   -2.30269525207073      2.47854876276268     -0.43333614925371
  N   -1.03932034752358      2.23098108908038     -0.51943921663215
  C   -0.37979832432668      1.09213454056466     -0.20316410456260
  N   0.91728203658248      1.19962539043846      0.01441879601140
  H   -2.64663412202952      3.38999664815838     -0.90974222085991
  H   -4.07949906213805      0.21725270942283      1.16168252300222
