28
Coordinates from ORCA-job ./opt_b97-3c_parallel
  N   -4.84111516533396     -2.14542863818448     -0.02578564530284
  C   -4.12359187865929     -1.22846365932578     -0.01851829162570
  C   -3.22987555116273     -0.15368732208547     -0.00998303939433
  C   -3.53838830848906      1.22598510766789     -0.01145826173989
  C   -2.36894090049859      1.99267373878205     -0.00260237267890
  C   -1.28562375248779      1.11165166327373      0.00542745501438
  C   -1.81864461792631     -0.25806137345489      0.00057090760116
  C   -0.96810904184882     -1.32752240544804      0.00241516676424
  C   0.43239844641195     -1.16294369273385      0.01137804846276
  C   1.18284101365747     -2.33559518713447      0.00514718906342
  C   2.55353029462425     -2.56050829916737      0.00812352689456
  C   3.59101573048594     -1.65710011698423      0.02484414574679
  C   3.52782519904248     -0.25819972017335      0.04121799877652
  N   4.72130014346432      0.43096175056052      0.11784638197863
  H   5.55073794634477     -0.04853385864063     -0.18427997628123
  H   4.70986392875571      1.40292216631897     -0.13756028447839
  C   2.35736438244579      0.50863630973304      0.04234919246290
  C   1.00228192808267      0.20051730764394      0.02264605935174
  C   0.09511473267153      1.30216817274101      0.01606438034872
  C   0.58272917744143      2.62951333917709      0.01431020083046
  N   0.96849533873109      3.72562811178746      0.00837330169537
  H   2.55338374792326      1.57485411771087      0.06115155490056
  H   4.58818526356166     -2.08377944308582      0.03311382594344
  H   2.84680262333556     -3.60223884817962     -0.00412211470593
  H   0.58499420119383     -3.23915177860251     -0.00553172021243
  H   -1.36995377906211     -2.33252591748023     -0.00490714060143
  H   -2.31356417850364      3.06840450193929     -0.00143716309848
  H   -4.54319312090140      1.61942306024488     -0.01862202551615
