29
Coordinates from ORCA-job ./opt_b97-3c_parallel
  N   5.78193795130805      0.46079183300111      0.05207798411310
  C   4.61954136253143      0.42739354963909      0.01499887590201
  C   3.20932755733963      0.32705698360247     -0.01841687164537
  C   2.49898724197235      1.54211191389508     -0.01469924493632
  C   1.15084453804705      1.78224245558552     -0.01278619796957
  C   0.03438047496505      0.92346725993089     -0.01287533960933
  C   -1.22177315111258      1.51068049975964      0.00004115194071
  C   -2.39476856468051      0.76123857354154      0.00321050717440
  C   -2.30451797896173     -0.71875785751035     -0.00961715758612
  C   -3.60758305371377     -1.22724452453769     -0.00199468293620
  C   -4.47835037137787     -0.12612879584900      0.01628935885765
  N   -5.83310296021371     -0.18164016419408     -0.01267624438028
  H   -6.35349918185712      0.63945481250075      0.23764341561895
  H   -6.28424180684281     -1.05344207273030      0.19823840623130
  C   -3.73071046926325      1.09805108634465      0.01693750511561
  H   -4.15491171638667      2.09014908185037      0.01922786775865
  H   -3.89701726595233     -2.26599912757302     -0.01185491703166
  C   -1.06412538272451     -1.31089785044058     -0.02240985501505
  C   0.13056923742139     -0.55907095371716     -0.02489156668663
  C   1.30536383852170     -1.29471809904945     -0.04776303258599
  C   2.67365289019040     -0.97405835789562     -0.04632624509011
  N   3.54011885391751     -2.04390594628793     -0.13101213233868
  H   4.50704904803364     -1.87699703949635      0.09289555196314
  H   3.19824343759114     -2.92987125895889      0.19568125367357
  H   1.13007143706989     -2.36569587096499     -0.07897888799561
  H   -0.98695887771540     -2.39129387985919     -0.03405404758998
  H   -1.28366474701099      2.59217974864341      0.00745258190610
  H   0.88975001228677      2.83438026947529     -0.00492263390375
  H   3.12672668921723      2.42288665719482     -0.00134427635454
