28
Coordinates from ORCA-job ./opt_b97-3c_parallel
  N   -5.14454001116640     -1.93405574005006      0.02862386844933
  C   -4.40727928929651     -1.03399509413132      0.01820995852090
  C   -3.51299373393579      0.04044844403157      0.00468380660404
  C   -2.08446266468106     -0.04082489328037      0.01344734430865
  C   -1.56253453132254      1.35503929685613     -0.01100365934245
  N   -0.25425167470962      1.59236072462662     -0.00574062159135
  C   0.57252019093008      0.54360201252818      0.01828303007810
  C   1.94815314415166      0.90353640739718      0.02402179786416
  C   2.19124931701625      2.30112608753329     -0.01029542567155
  N   2.57554016806360      3.39785372689646     -0.04468559351911
  C   3.11717442086142      0.10642958313923      0.05160149498910
  C   3.17954754844781     -1.29635168461004      0.04146457507356
  C   2.17515117655029     -2.24193929172845      0.03371877958071
  N   2.52947005092167     -3.56744648724349      0.07523763711815
  H   3.47209407714076     -3.82025416553568     -0.16032828821860
  H   1.84055302094974     -4.24873283324215     -0.18755731270276
  C   0.78156130198443     -1.99619483345893      0.04482954509792
  C   0.05311340485702     -0.83561953608398      0.03450484638432
  N   -1.30598218998213     -1.07821765328496      0.03519070363189
  H   0.14885321181736     -2.87563528531812      0.06249164005059
  H   4.18700371390788     -1.69811990817209      0.06114876422685
  N   4.32075043835178      0.74556451668132      0.12259490087827
  H   5.15518564410634      0.23476175292900     -0.09574240322865
  H   4.36082288675280      1.73895040344840     -0.02996870283164
  C   -2.64728312718136      2.20741154137931     -0.03338737026844
  C   -3.81736593992920      1.40452217556171     -0.02397815468273
  H   -4.82499376615891      1.79134897419182     -0.03732077746745
  H   -2.61782181114740      3.28367091193939     -0.05377337313179
