31
Coordinates from ORCA-job ./opt_b97-3c_parallel
  N   -4.80845949450606     -1.35083123973668      0.87138779954828
  C   -4.05885875230725     -0.52136441912573      0.54988284594606
  C   -3.23608937401263      0.53884956467366      0.15282346238066
  C   -3.76177495981226      1.85665537617717     -0.20338166867677
  C   -2.74263653466700      2.68498634981901     -0.54112274634890
  C   -1.51738815906430      1.93296486546312     -0.41782731058741
  C   -1.85833171100104      0.57900575654623      0.00850382535762
  C   -0.82423566213330     -0.37565804475245      0.17164561965163
  C   -1.15597454922752     -1.66823570304770      0.64386097626375
  N   -1.42693684900015     -2.69478819367517      1.11304427145765
  C   0.51233580640032     -0.03815790340666     -0.06236438316820
  C   0.84395008269480      1.36728633779467     -0.27418810040942
  C   2.08492460899134      1.93553676315591     -0.15030716558176
  C   3.31029990974061      1.39029239437585      0.32504625825715
  C   3.61568535101438      0.05707382458233      0.43252996181967
  C   2.86450632588308     -1.06150163383911      0.00368560238087
  N   3.56858832154138     -2.22758200101638     -0.07945852819397
  H   3.11151168195803     -3.04146982542984     -0.45583048718874
  H   4.55716606181591     -2.17911224352545     -0.24369468928194
  C   1.48855169255895     -1.08078981446387     -0.27695932755085
  C   1.03822674632513     -2.27921419113569     -0.87138902592835
  N   0.79705796943852     -3.27358087413098     -1.42670971464689
  H   4.61051002694866     -0.17678426182919      0.79510807369096
  N   4.28091269757643      2.32422052253040      0.61921149403445
  H   5.08071422666071      2.00411988398302      1.13714532361243
  H   3.96626301244148      3.23444380010683      0.90656227138501
  H   2.12477191064080      2.99986147327308     -0.35145449480447
  C   -0.22251333593182      2.29606649310565     -0.54535747757973
  H   0.04285288582998      3.32051559526843     -0.77315188205849
  H   -2.81506987817089      3.71759722556719     -0.84016774669314
  H   -4.81313716222594      2.09529976339292     -0.18617836678767
