29
Coordinates from ORCA-job ./opt_b97-3c_parallel
  N   5.81106715086263      1.66081527653349     -0.00175273612281
  C   4.68063535544967      1.39127456275932     -0.00142257940260
  C   3.31743993563904      1.00578516389648     -0.00091031083430
  C   2.39531227655885      2.04569454403087     -0.00099288081605
  C   1.01711210798634      2.03328295031009     -0.00058489986766
  C   0.10600167772302      0.97773960140566     -0.00001325969301
  N   -1.18511761580126      1.37214185818060      0.00024406824769
  C   -2.10353655862312      0.42756218524295      0.00070308104612
  C   -1.74750299012275     -1.01765368100884      0.00092537179900
  N   -0.47917924679155     -1.40622050925188      0.00071211855866
  C   0.46704840257587     -0.45554352167501      0.00026291726248
  C   1.77790555788994     -0.99428688749009      0.00023761609430
  C   1.80860550123494     -2.41734337648893      0.00081909539125
  N   2.03608701512118     -3.55689387241492      0.00129550802944
  C   3.06837843957959     -0.39789963221803     -0.00030806160669
  N   4.14178496538319     -1.21388240827681     -0.00029406273920
  H   5.07380463814355     -0.84065865825061     -0.00046729637718
  H   4.03178776508494     -2.21268677890430      0.00022839671273
  C   -2.91003434517165     -1.76316126015518      0.00135739777241
  C   -3.98531050900072     -0.84183017341367      0.00143508078677
  N   -5.28162543150412     -1.13871962174565      0.00181888517413
  H   -5.60132123928265     -2.08977272509275      0.00206314721379
  H   -5.97382759014190     -0.40846403367899      0.00180914741533
  C   -3.49419254610736      0.51857922812745      0.00103073904496
  C   -4.32418429035653      1.63711098239603      0.00099501905447
  N   -5.09022224191031      2.51484646109730      0.00086258837135
  H   -2.99044709061137     -2.83727232060605      0.00159167839393
  H   0.53391246112330      3.00098605419362     -0.00073310903795
  H   2.84022516566921      3.03167001279785     -0.00145276417138
