27
Coordinates from ORCA-job ./opt_b97-3c_parallel
  N   5.24099108394914      1.16159553886830      0.00401959882146
  C   4.08832414674932      1.01794414043953      0.00232939104742
  C   2.68631564882664      0.79768086324105      0.00028609138467
  C   1.91188666939613      1.93536849387675     -0.00089711792066
  C   0.52783648257756      2.08412478896915     -0.00311244650083
  C   -0.50072534269048      1.16215168517990     -0.00254014140169
  C   -1.80141763219193      1.72592187836300     -0.00403567847364
  C   -2.91267941784947      0.93717297474614     -0.00119724782394
  C   -2.76677213287789     -0.52672011435009      0.00336084219214
  C   -4.05902124028198     -1.01133308708032      0.00581957622506
  C   -4.88958258937978      0.14759789764042      0.00267056860211
  N   -4.22639899715776      1.30970964856074     -0.00147300806075
  H   -5.97175428540950      0.14500141270967      0.00339391412384
  H   -4.38539871089542     -2.03824583014805      0.00930535751905
  C   -1.49307814885165     -1.09346510056390      0.00408889488940
  C   -0.34380497160677     -0.31858648986974      0.00079624747219
  C   0.91979661344620     -1.00754643126059     -0.00081251550186
  C   0.82737290341797     -2.42400686806686     -0.00161902387660
  N   0.85517916630644     -3.58604257386345     -0.00243881123334
  C   2.26216455979254     -0.57454016887053     -0.00111638029813
  N   3.25497153611544     -1.49966744192839     -0.00351296070976
  H   4.21883010716747     -1.22281882636795     -0.00008356458457
  H   3.05270131759542     -2.48243605632183     -0.00050511866218
  H   -1.40945470886638     -2.17041070364954      0.00685349984072
  H   -1.90577145188843      2.80221745733360     -0.00666726754956
  H   0.20360660608478      3.11692757983806     -0.00498363808139
  H   2.46945257772240      2.86206291487495     -0.00019663353920
