31
Coordinates from ORCA-job ./opt_b97-3c_parallel
  N   -5.78202801699516     -0.06086608999006     -1.26128449351277
  C   -4.68669661668130     -0.19262000807719     -0.89870563735499
  C   -3.35295596801494     -0.31074860013697     -0.43180467571710
  C   -2.81031703946660     -1.56984909679121     -0.43505984032837
  C   -1.54430012154339     -2.00757334260678     -0.02932416452480
  C   -0.38603093801783     -1.28747600140415      0.16685139914298
  C   0.83311398922054     -2.05658926268036      0.34114125318000
  C   0.76548586837254     -3.45377576061154      0.56241811709545
  N   0.72600853067451     -4.59777345574213      0.75309190524657
  C   2.05506352644390     -1.45785499106788      0.20839146312959
  C   2.14292687181226     -0.03732099077636     -0.11861167447305
  C   3.48620606139742      0.24786956629213     -0.29392026395091
  C   4.09779641651087      1.46104356506540     -0.62476153978383
  N   4.67363219380831      2.43395654954500     -0.89830321345632
  C   4.23761971732533     -0.98644500889213     -0.05418641782610
  C   3.38435427594984     -1.99926784907008      0.24597482696612
  H   3.63403844587555     -3.02444338654012      0.45984973015235
  H   5.31227892886575     -1.04384385355065     -0.11719365102611
  C   0.96256847093700      0.73838133744134     -0.16585315996693
  C   1.05261709476411      2.10630314048666     -0.52013752830592
  N   1.11981669748800      3.20406211416817     -0.88996871628800
  C   -0.28558855405464      0.15920176872909      0.07622461081335
  C   -1.40219565175206      1.01864655317337      0.42707193943476
  C   -1.09319427461846      2.18302536567451      1.16407750172304
  N   -0.96315932191471      3.12503054991875      1.83449338496838
  C   -2.76721758542201      0.87773737704070      0.14925297355226
  N   -3.61692015213855      1.88011877199048      0.43906837728110
  H   -3.27915298812943      2.75365975219008      0.80458225614203
  H   -4.60615426933354      1.78455155005103      0.29848772177622
  H   -1.44644525445477     -3.08338826209609      0.02042903865805
  H   -3.46877194571353     -2.35296260143567     -0.78693066095265
