27
Coordinates from ORCA-job ./opt_b97-3c_parallel
  N   -6.35834525718527     -0.79151979257947      0.00402152768288
  C   -5.20236000272500     -0.68525995339809      0.00279860919338
  C   -3.79015058476494     -0.54189012381520      0.00136994042956
  C   -3.30089412830029      0.78516476721339      0.00102801783792
  N   -2.07774549939638      1.24497787625031     -0.00009438710193
  C   -0.89595824196447      0.61460993283788     -0.00121696924778
  C   -0.63847382889031     -0.85135203502139     -0.00151518574378
  N   0.60178944947228     -1.36760948042953     -0.00256731386543
  C   1.63041511459650     -0.53896982511246     -0.00337026974017
  C   1.51013152173422      0.93812422742771     -0.00326556130348
  C   2.77188700125539      1.48829181076046     -0.00424315756697
  C   3.69714135285024      0.41024898859246     -0.00495175055155
  N   5.02309465694506      0.50771602832293     -0.00592969401459
  H   5.48290872043491      1.39974052136645     -0.00627363888271
  H   5.59816420540471     -0.31797672013566     -0.00636869036011
  C   2.99302870971198     -0.84594775972358     -0.00442513643255
  C   3.62593430204865     -2.08812550148057     -0.00487622005113
  N   4.23842790710166     -3.07813576908270     -0.00527254297774
  H   3.02192706874707      2.53643954012638     -0.00441112534869
  C   0.21986115140157      1.47321088294352     -0.00218430626364
  C   0.04861347326640      2.87854136749857     -0.00198403504875
  N   0.02487531095260      4.03843278561794     -0.00196152336339
  C   -1.64801058286700     -1.82059162373765     -0.00075931873239
  C   -3.02504019359879     -1.70451033392785      0.00049807674476
  H   -3.57586184851837     -2.63521573890941      0.00089421986268
  H   -1.25327333824947     -2.82780598233010     -0.00121244204626
  H   -4.06218092346290      1.55878505482567      0.00181883429185
