29
Coordinates from ORCA-job ./opt_b97-3c_parallel
  N   -6.05694331993946     -0.53902758185373     -0.85818102655896
  C   -4.94614999737674     -0.32057452434752     -0.60506072840620
  C   -3.58219750355866     -0.05928128173764     -0.29999890642323
  C   -3.14750012312032      1.24374349080424     -0.41282280535084
  C   -1.88622409821483      1.75678056442476     -0.10400741731026
  C   -0.66737647144432      1.13790388288978      0.11689120946011
  C   0.46542220191201      2.01621391168970      0.27844126591300
  C   0.27359178801790      3.40944011384742      0.45291631923065
  N   0.14300039883642      4.55231055335623      0.60447723842040
  C   1.74744141178875      1.53433860719714      0.18580062228689
  C   1.97806524894739      0.11467754087719     -0.09532413738384
  C   3.34886438979325     -0.04690003511309     -0.23977096332634
  C   4.08181923736733     -1.20752032465307     -0.51543510011883
  N   4.75251345001231     -2.12952012331322     -0.74214944355412
  C   3.96459964904131      1.25134426130463     -0.02783250613684
  C   3.00663311016981      2.19363460918347      0.22751427683711
  H   3.15925793726644      3.24346600970709      0.41110905156953
  H   5.02937534191708      1.41485456419687     -0.07326511992480
  C   0.88386417927385     -0.77029179679887     -0.12100477684330
  C   1.12458814173423     -2.13061587935052     -0.44013800847925
  N   1.33470065189980     -3.21399194529645     -0.79690031668567
  C   -0.42031892621684     -0.30363247323935      0.07684925956313
  C   -1.47523351384137     -1.24373433625119      0.39218064124233
  C   -1.10104977966026     -2.43626285619042      1.07847174014920
  N   -0.88646216649163     -3.36897610782369      1.73453473263958
  C   -2.83217981349020     -1.15070612960358      0.19552277529239
  H   -3.40491156158425     -2.02828251567338      0.45873344774113
  H   -1.85045750946168      2.83810589153370     -0.10903766518711
  H   -3.88546092028196      1.97195749463618     -0.71941678075482
