26
Coordinates from ORCA-job ./opt_b97-3c_parallel
  N   4.61943035185670      2.15373984669724      0.67705587659974
  C   3.95464836940099      1.22417004501760      0.45624225470738
  C   3.18508501271398      0.08884222227738      0.19097690715670
  C   1.80689085626358      0.00257070062049      0.07275772596659
  C   1.48701042857625     -1.42496969663465     -0.22084160292748
  C   2.71666539519234     -2.14613761299783     -0.29651962122393
  C   3.71500665808872     -1.24779769639223     -0.04186796217521
  H   4.77078625524254     -1.46982670481326     -0.01017236147691
  H   2.81837472397091     -3.19963379202383     -0.49392402175675
  N   0.26342142101683     -1.84787756556355     -0.33212619719715
  C   -0.72604135470370     -0.89540512089821     -0.17291944266455
  C   -1.97123127211869     -1.44143234690438     -0.04209101189829
  C   -3.24292577739580     -0.83833849758825      0.17390979980864
  N   -4.25693478434653     -1.71109861147540      0.47180528780570
  H   -4.12611792159179     -2.68277610369137      0.25714707556887
  H   -5.20506202830136     -1.39083252907681      0.39127572111819
  C   -3.50844173944157      0.50759586455853      0.10974872074064
  C   -2.58905709671764      1.55322436534433     -0.16066472333918
  N   -1.27502684064945      1.55407588257731     -0.13754826988042
  C   -0.39601936882538      0.55175746791585     -0.04873059650014
  N   0.86862997181453      0.94227190115793      0.11294692848173
  N   -3.13559801340167      2.77115305842313     -0.46474224834298
  H   -2.50186686767430      3.55006702843877     -0.41130561985759
  H   -4.09588201151912      2.95940424493875     -0.24277522469123
  H   -4.54419838596274      0.80371571530360      0.23652391751504
  H   -1.96262006918919     -2.52470266861410     -0.08499247454533
