33
Coordinates from ORCA-job ./opt_b97-3c_parallel
  N   5.33499339673881      0.59643789682011      0.84854509693294
  C   4.31475419664984      0.14890842949406      0.50703881551849
  C   3.05301459854869     -0.33833548649550      0.10390376744060
  C   3.05186470288660     -1.60043345842920     -0.52997957705641
  C   1.99747885589580     -2.42498296152336     -0.78714286110725
  C   0.65951096092782     -2.22048076032565     -0.41187462396534
  C   0.00943543612578     -1.06848182681223     -0.03676368835868
  C   -1.40899625586454     -1.20750401188402      0.24471579527930
  N   -1.92828298393300     -2.42062490367497      0.60928138714838
  H   -2.89658710440850     -2.37821466761515      0.90556709774316
  H   -1.34516129526933     -2.99621953696090      1.19179381533608
  C   -2.23109184155540     -0.12530269435879      0.01785790807619
  C   -1.67847123975707      1.16596477388271     -0.32556472562300
  C   -2.74704528651919      2.05266011924975     -0.44134851120012
  C   -3.94800972928548      1.34014844146415     -0.19599459115144
  C   -3.64670067062263      0.01276990699635      0.07688222409827
  N   -4.52540008034208     -1.06150205882504      0.36786969309430
  H   -5.43925204707242     -0.72136092656075      0.63241074489599
  H   -4.65138310059176     -1.66883637825097     -0.43393959312277
  H   -4.94211699323622      1.76192197979029     -0.23275041393157
  H   -2.70315074105679      3.11004574342385     -0.65681582793759
  C   -0.28295875728490      1.36390086693670     -0.32088722709491
  N   0.19038681500430      2.68141300071023     -0.46657962663604
  H   0.96286060913829      2.75880690951885     -1.11149505900578
  H   -0.54219176988435      3.31593393555323     -0.73873168121243
  C   0.57867558843652      0.29181555473772     -0.09369705466548
  C   1.94883313716483      0.52015853715465      0.32896323165483
  N   2.19497125119056      1.65218699440164      1.01627807054250
  H   1.49340235374007      2.37810642387640      1.02768197566822
  H   3.14236912617851      1.90684752703760      1.24114823779801
  H   0.03281120267069     -3.09971437167512     -0.49514963811299
  H   2.22713429927435     -3.38057182499776     -1.23985424135363
  H   4.03534860021250     -1.97850703925903     -0.78102303619191
