26
Coordinates from ORCA-job ./opt_b97-3c_parallel
  N   -3.16799888342396     -3.31497866827363     -0.14345863310739
  C   -2.69568736567413     -2.25916027247403     -0.05241988907753
  C   -2.20671025396895     -0.92471333992414      0.07118317238088
  C   -3.23013118119205     -0.02509521850138      0.46059807163292
  C   -3.21044386357075      1.33841301938993      0.44595936310363
  C   -2.16556192430488      2.16933735745974      0.02786743255686
  C   -0.84584154076119      1.84347095990442     -0.19209474696619
  C   -0.10063377361701      2.91384384651781     -0.76716363902075
  N   0.40480969995567      3.79730107128940     -1.32493265069795
  C   -0.15580080879868      0.59194971752505      0.02459126840102
  C   1.22563477141098      0.60306049356661      0.21990847931954
  C   1.93516359896243      1.76738090518367      0.60480410071623
  N   2.59039170957919      2.63779492735574      1.00485830073676
  C   1.98111162251618     -0.58594569923535      0.11011237569892
  C   1.30596275053120     -1.82554207181041     -0.27046358454898
  N   2.20175413523920     -2.86050819282644     -0.38729484817890
  C   3.37369573715694     -2.31163251019150     -0.08944557956000
  C   3.30693192479764     -0.91300328352666      0.23633968418804
  H   4.12681798604276     -0.26885983970625      0.50700602726510
  H   4.27505048275624     -2.90906125864171     -0.10503920351884
  C   -0.04719618374867     -1.87082696458653     -0.37660625439023
  C   -0.83474351955397     -0.71038464622781     -0.12549781791043
  H   -0.52987280892287     -2.81785767372644     -0.56639728387468
  H   -2.42444313588402      3.20462267222897     -0.14644552099862
  H   -4.13562560593268      1.83541303461018      0.70708675921025
  H   -4.16636960279379     -0.49275454958038      0.73174017094060
