28
Coordinates from ORCA-job ./opt_b97-3c_parallel
  N   3.31219221597255      3.15863914767384      0.00059035522615
  C   3.02945160399086      2.03296217047117      0.00058371516833
  C   2.73812973100655      0.63534703368623      0.00060749135738
  C   3.89764864307733     -0.14054881253402      0.00101534546663
  C   4.03901065208271     -1.51910293177379      0.00114598403907
  C   3.04059889525168     -2.47329446336839      0.00083729529254
  C   1.66773324568969     -2.27959483408365      0.00031078052627
  C   0.87331098185629     -1.12985054911114      0.00003748745685
  C   -0.51239511783393     -1.35919815151869     -0.00046316975987
  C   -1.42183602621978     -0.32938842641826     -0.00057088223017
  C   -0.94694137779883      1.05746125617681     -0.00050377366203
  C   -2.05159140166959      1.90012194916322     -0.00107408342541
  C   -3.20823067359842      1.08912815254543     -0.00155470590942
  N   -4.48100074746066      1.50713267069882      0.00044698953935
  H   -5.23714794537058      0.84616842578800     -0.01095187656402
  H   -4.71062054198926      2.48236105611921     -0.01324940328474
  C   -2.82551353970842     -0.29471356403842     -0.00116149379395
  C   -3.72219212353932     -1.36005583978806     -0.00280263697141
  N   -4.51043037709134     -2.21928191754720     -0.00488574919602
  H   -2.04093714983331      2.97820661207344     -0.00065430242750
  C   0.41917479039213      1.30175689477632     -0.00005554196647
  C   1.35869673919755      0.27405504181915      0.00024427465841
  H   0.76035598621028      2.32667443900732     -0.00001546144231
  H   -0.86537029585872     -2.38204804075445     -0.00061398875450
  H   1.09272533042240     -3.19836913811704      0.00009523086596
  H   3.36468424993216     -3.50621256288263      0.00098751432092
  H   5.05818959154699     -1.88486789965128      0.00152127770564
  H   4.81969737484297      0.42451792668808      0.00126707836430
