27
Coordinates from ORCA-job ./opt_b97-3c_parallel
  N   -4.45600175686256     -1.92726045810778      0.68181263531095
  C   -3.80493224677996     -1.00144065168121      0.41314964409590
  C   -3.09361459536548      0.15457033130774      0.07629454558495
  C   -3.74486321821765      1.40480815268742     -0.33692572760597
  C   -2.82008060402234      2.35986644660039     -0.60795770615611
  C   -1.52880163525774      1.77145436559632     -0.37607312254921
  N   -0.37109239071215      2.35765722649524     -0.42313270375494
  C   0.73934212553294      1.60593445498219     -0.10798324471402
  C   1.84608235697796      2.37139876655606      0.16812044033803
  C   3.08782747941781      1.95405305634530      0.69709591199040
  N   3.68284784686860      0.80399295721811      0.64427785043125
  C   3.19873721340177     -0.30655366007751      0.02995389725166
  N   4.17759478941723     -1.14161426816273     -0.36621197336397
  H   3.97618915802989     -2.05978943031721     -0.72176744043410
  H   5.11134926479541     -0.93408049856963     -0.06211196286494
  C   1.84230538539037     -0.66890395898672     -0.13788879169870
  C   1.67195296733801     -1.97804663822046     -0.64089598665196
  N   1.68515237554781     -3.02902087228215     -1.13969667199742
  C   0.67896562636778      0.14673494990130      0.04990188060029
  C   -0.58612271160096     -0.42932520273641      0.22941303462073
  C   -0.73325327127588     -1.77205348319188      0.65019894127548
  N   -0.88118423367130     -2.84022764969730      1.07878048127608
  C   -1.73169779766117      0.36345461395044      0.03330019214359
  H   3.66000895078726      2.72725176861352      1.20300759391884
  H   1.68642876960024      3.43869647066589      0.09447744925740
  H   -2.98868402319742      3.37773274600658     -0.91382386243878
  H   -4.81650503884744      1.50994274290515     -0.39865467096538
