29
Coordinates from ORCA-job ./opt_b97-3c_parallel
  N   -5.00189624333807     -1.09640028956213      0.63668119049893
  C   -4.00752842086678     -0.55290424831008      0.36878220055555
  C   -2.77176190068846      0.05958245832145      0.06073857171218
  C   -2.84713321802179      1.38173361759050     -0.40995030563231
  C   -1.84071916960292      2.28614635534922     -0.60743408752745
  C   -0.48473141950325      2.12743309692814     -0.30433982721301
  C   0.24530474860725      1.00331539047748      0.02229116759500
  C   1.65791038263349      1.20814444457998      0.26957830169946
  N   2.11331381864963      2.47497639077277      0.55805311895558
  H   3.09373386453063      2.53417955700257      0.76980254378364
  H   1.55194134418588      3.02047072639623      1.18882831961530
  C   2.54397765977648      0.16384537175341      0.08779404718137
  C   2.04260998855242     -1.15307653174847     -0.27765838734861
  C   3.14507479558157     -1.98884059984829     -0.44720582244777
  C   4.30696708816380     -1.22755932536615     -0.18954008464537
  C   3.95555661975730      0.07617659277831      0.14781116504840
  H   4.65154009182131      0.86839808771515      0.37851491730078
  H   5.31796072352831     -1.60395715290764     -0.23850971993223
  H   3.11675809179974     -3.03746838443221     -0.69978939910220
  C   0.67182032125561     -1.39754835106877     -0.27889448539507
  C   -0.24889258699746     -0.38512565595179     -0.06362589154577
  C   -1.61438509970902     -0.75343049522251      0.19586260927616
  N   -1.83167134699893     -2.03545265376513      0.56649826410744
  H   -1.07568999038478     -2.57770954340944      0.93840760011013
  H   -2.76393330739162     -2.34673565701014      0.78048299078618
  H   0.33430562561745     -2.40700605143612     -0.47155390166396
  H   0.09598835473686      3.03566072528820     -0.40239657580591
  H   -2.13680949924959      3.26404266243987     -0.96261810858733
  H   -3.85380342514495      1.73642085604448     -0.59348283747808
