24
Coordinates from ORCA-job ./opt_b97-3c_parallel
  N   2.01288545330140      3.40160769870828      0.00141008133339
  C   1.88829335474431      2.24831255379462      0.00108611820533
  C   1.80553221731477      0.82063061280601      0.00077285387856
  C   3.06523426369927      0.23006539375941      0.00093748216402
  C   3.40817067282511     -1.11815246564966      0.00077918166214
  C   2.57066747133080     -2.20894709835887      0.00042453249514
  C   1.17741014206122     -2.22081508945788      0.00012833190806
  C   0.22603470330937     -1.20696764709557      0.00008555550058
  C   -1.11319262769189     -1.64935870641274     -0.00027881626450
  C   -2.15904182082453     -0.76461499485625     -0.00037187217429
  C   -1.89407598586752      0.68134838146583     -0.00008443328321
  C   -3.15070924686643      1.27430484994512     -0.00027581410269
  C   -4.06341694165457      0.19856608088123     -0.00065160358018
  N   -3.48839575111513     -1.02299933226494     -0.00071096607537
  H   -5.14178051127566      0.28244148549657     -0.00088215591711
  H   -3.38731370561956      2.32552101067906     -0.00016398598091
  C   -0.58492264763564      1.13827369989107      0.00028615267687
  C   0.49571788378521      0.25958742867847      0.00038513659441
  H   -0.39796389604241      2.20266174055574      0.00050050230298
  H   -1.31739359401307     -2.71158397907797     -0.00049310844698
  H   0.74726741653386     -3.21556300962175     -0.00012335757029
  H   3.04523040635082     -3.18155609057425      0.00036640909383
  H   4.47117459917279     -1.32587283980786      0.00096866028990
  H   3.89454476737746      0.92347327461630      0.00123989169029
