32
Coordinates from ORCA-job ./opt_b97-3c_parallel
  N   -4.27115094001106     -2.88838470748768      0.75597130955595
  C   -3.68052262556567     -1.91143959617345      0.52193790760343
  C   -3.04095758664812     -0.70784233789346      0.23429067930943
  C   -3.71805113324569      0.50562257692647     -0.09012668926882
  N   -5.04273003897997      0.64152951537631     -0.13316638946335
  H   -5.47146825115267      1.51539221018131     -0.37518142723515
  H   -5.64503400774089     -0.13706906880410      0.07280809377856
  C   -2.76438874574880      1.53605963443707     -0.35753284307825
  C   -1.51558996293890      0.98723665238208     -0.18762898351443
  C   -1.66227125581569     -0.42860717549577      0.16685477805073
  C   -0.55254115374333     -1.22297674845113      0.27456821456387
  C   0.75062166258796     -0.71435504649662      0.08695386812106
  C   1.77675440389903     -1.67697388234709     -0.06750975559630
  C   1.36973128523578     -3.03748887621309     -0.05236993814828
  N   1.14889365752229     -4.17837279355097     -0.06242117383864
  C   3.17807455564860     -1.53627250816803     -0.30883998322935
  C   3.90404345281118     -0.35689739683133     -0.12763986209048
  C   3.45086740419552      0.89097561535424      0.21337199360554
  C   2.15225312570418      1.39758374289046      0.28991230354724
  C   2.12015789454232      2.72679998043493      0.79357609293003
  N   2.19041723607595      3.76887654265136      1.30202465580447
  C   0.91883302281490      0.75327173515614     -0.00825227784042
  C   -0.22101691328400      1.53643167671154     -0.25832446303479
  C   -0.14692479867827      2.89132703584792     -0.65716651805458
  N   -0.21074472681669      3.97257567674525     -1.07643889188824
  H   4.22453368590886      1.61348425980222      0.43488076962345
  H   4.97893418520203     -0.45158421730883     -0.22239834384186
  N   3.88086339176044     -2.63601363562896     -0.69075069814601
  H   3.46403428771330     -3.54979989572158     -0.65342307193772
  H   4.88277278648705     -2.60666349974479     -0.65997782144061
  H   -0.68786297503728     -2.28292839270842      0.43035180285722
  H   -2.99344342889835      2.55544057172885     -0.62084989470439
