29
Coordinates from ORCA-job ./opt_b97-3c_parallel
  N   -4.47960955333386     -2.65820563812558     -1.02898354900959
  C   -3.79255531630300     -1.76908417004256     -0.72017477141458
  C   -3.02165503254929     -0.67363414547890     -0.33752291218429
  C   -3.54242714202125      0.56536084163773      0.09874907870343
  N   -4.83598497061450      0.87344903526428      0.18340845701277
  H   -5.54058720714024      0.20660470461844     -0.08149751051871
  H   -5.13939533062018      1.77654018573962      0.49665319240090
  C   -2.46097721988529      1.45321513478163      0.44618993205623
  C   -1.29032060701482      0.78562354541131      0.21800575617394
  C   -1.60776096152889     -0.56839130190735     -0.27047537241640
  C   -0.60980531618937     -1.47306170218777     -0.46810772051757
  C   0.73986135592423     -1.12594714257396     -0.18874764727198
  N   1.55449341221061     -2.14449582200721     -0.03630062865464
  C   2.86739599275426     -2.11835673814338      0.24619208898698
  N   3.80121636478356     -1.27008949642221     -0.18947728028612
  C   3.54719401598575     -0.02548703347312     -0.53327162092019
  C   2.39197632676958      0.75418863404781     -0.37351789353275
  C   2.57215731891484      2.10094310197848     -0.78218811038449
  N   2.78470116295036      3.16772793451406     -1.18951798789293
  C   1.09162311972621      0.31104179648205      0.00393389479696
  C   0.06398055421896      1.19520881173080      0.32391255114393
  C   0.29180943192035      2.51669908551713      0.77131174238065
  N   0.36366900768737      3.58435075300885      1.22237610682960
  H   4.39335256118024      0.49221556783434     -0.97103804451798
  N   3.31495458044186     -3.17348374186947      0.95145755833339
  H   2.69689376235815     -3.94720717717833      1.11396550275597
  H   4.30629921113409     -3.31079814725418      1.03080383801074
  H   -0.81569767893849     -2.50898457168655     -0.69513368161162
  H   -2.57080260802125      2.46339997968401      0.80598444244831
