26
Coordinates from ORCA-job ./opt_b97-3c_parallel
  N   -3.25692367332395     -3.13190908741541      0.00193037769404
  C   -2.92456870589769     -2.02054460587411      0.00155257970500
  C   -2.66820132540049     -0.61549957228009      0.00097602862007
  C   -3.82031520419984      0.16891141780145     -0.00022946360670
  C   -3.94641610597324      1.54719908055071     -0.00105862352518
  C   -2.93644131969478      2.49451917980531     -0.00087615552631
  C   -1.56808076493838      2.29791289205652      0.00017209640111
  C   -0.78839624249337      1.13426315297505      0.00133137156639
  N   0.54126377723121      1.38735395389904      0.00211920376779
  C   1.35035985345047      0.34929160649418      0.00322863750211
  C   0.84387886502684     -1.04713050160872      0.00360420030837
  N   -0.45932167802542     -1.29968024455927      0.00283974765707
  C   -1.29219154849645     -0.25166669947484      0.00171761629880
  C   1.92211666645599     -1.91030323928921      0.00479456838386
  C   3.09098589756139     -1.11012143218217      0.00519404249030
  N   4.34948938137941     -1.54862053241258      0.00627843832747
  H   4.56195329036091     -2.52871795562411      0.00701575638883
  H   5.11765779699675     -0.89968970498446      0.00656297778271
  C   2.74570328726558      0.28949998011196      0.00424556326720
  C   3.68631041000433      1.31783210166254      0.00436317778772
  N   4.53536143985474      2.11519455249442      0.00485604500532
  H   1.88721394574042     -2.98707390546877      0.00533358918605
  H   -0.95590187485454      3.19082037393822      0.00011662081110
  H   -3.25523864295783      3.52904962713631     -0.00165206022010
  H   -4.96100986617823      1.92471036437034     -0.00195858409022
  H   -4.74600811849382     -0.39000968972233     -0.00056080988281
