26
Coordinates from ORCA-job ./opt_b97-3c_parallel
  N   -2.53586761577596     -4.00779603553456      0.01069553109006
  C   -2.28902392264868     -2.87431736848316     -0.02542379402454
  C   -2.05033692330636     -1.47349841699098     -0.07283988631817
  C   -3.24139414948503     -0.73106728191161     -0.30242928568692
  N   -3.49985126005092      0.53789211723283     -0.23486491429992
  C   -2.64491584871016      1.54510131914678      0.02599243171352
  N   -3.26670145750840      2.70743529830049      0.28869147519869
  H   -2.76055453369627      3.56702148866268      0.41042251318757
  H   -4.26390605687303      2.73767622944950      0.17555587705722
  C   -1.22573446058321      1.51099221563542     -0.02562495283230
  C   -0.60740026208291      2.78658782533155      0.00786208736376
  N   -0.29148420789134      3.90370568922602      0.06504966340284
  C   -0.33275828231249      0.40871390391163     -0.06986068495307
  N   0.94241561815452      0.78430817416034     -0.13757453705519
  C   1.88433704704669     -0.14827445771656     -0.04327516125750
  C   1.59119336463757     -1.57571698460294      0.17107499271603
  N   2.73574339802904     -2.31595098964304      0.26521441419058
  C   3.71419045556542     -1.43090616383634      0.11220983589437
  C   3.27213833902894     -0.07095186218177     -0.08452423659103
  C   4.08914914533625      1.04814304821460     -0.26862653860446
  N   4.79424787042828      1.95981067142574     -0.42034956309680
  H   4.75000447674182     -1.73887820859260      0.13822103315378
  C   0.29226462476986     -1.98036392111825      0.20813758503633
  C   -0.73321850103225     -1.01735179421384      0.04654197362095
  H   0.04719992370278     -3.02665193734432      0.31855354903869
  H   -4.10520495778417     -1.34084090002764     -0.54712684554454
