33
Coordinates from ORCA-job ./opt_b97-3c_parallel
  N   1.18520804044867      4.15029469201192      1.69277733104089
  C   1.45959059088720      3.15858735085333      1.15463978817581
  C   1.90223807929531      1.92425035922611      0.61353063129459
  C   3.28239978084488      1.71435746248147      0.78991100688790
  N   4.06734390974255      0.81808561714195      0.25525296650572
  C   3.70570621906428     -0.27193793547034     -0.41537551182277
  N   4.65187821822307     -0.78624651667638     -1.21239883993222
  H   4.53722807407178     -1.67220373345372     -1.67284544921174
  H   5.56519549328677     -0.36821603460066     -1.18590936095118
  C   2.46592860955107     -0.98568471789722     -0.24426214874853
  C   2.53577802559622     -2.32926244224929     -0.68482217829857
  N   2.72870330075068     -3.36303849476722     -1.18028285129286
  C   1.22949928090967     -0.44617581959806      0.14320154063125
  C   0.13521625585099     -1.32028097682588      0.41474826238838
  C   0.35883893005216     -2.63715502677545      0.87515827621863
  N   0.51115213429814     -3.68696788913038      1.34693102409016
  C   -1.16902492839943     -0.87145676848227      0.23909285575446
  C   -1.40885022895129      0.50901722318974     -0.20970028096023
  C   -0.34817208345670      1.42136884326431     -0.23192978658547
  C   -0.59928275032309      2.75721160491390     -0.62207104267402
  N   -0.82310987000176      3.81713928553648     -1.03831765054091
  C   0.95363344225389      1.00004685255268      0.11123128466817
  C   -2.77337420776191      0.66132462576374     -0.43515594598169
  C   -3.52731229720590      1.75860322007066     -0.85810422365088
  N   -4.27775583378344      2.57762794634968     -1.20391351122390
  C   -3.39881367992798     -0.59280502839489     -0.09716350554414
  C   -2.40521975260814     -1.52436086915576      0.32615798883048
  C   -2.73402610327488     -2.83560512579691      0.68073630805870
  N   -3.14807463495978     -3.88855154998625      0.95086285492323
  N   -4.69539525015177     -0.83133574005018     -0.17310882819341
  H   -5.06979808835452     -1.72942902190086      0.08692397298559
  H   -5.33373073882855     -0.11861662460036     -0.48732191226341
  H   3.79488947425850      2.45551982415551      1.39238227261883
