27
Coordinates from ORCA-job ./opt_b97-3c_parallel
  N   5.83647671844055      0.47921169731919      0.10362038682223
  C   4.67547427388193      0.54411102883940      0.07497129442656
  C   3.26391804666640      0.54711078766209      0.03132728602949
  C   2.61925761626467      1.78221491990243      0.04301030027494
  C   1.27774739631009      2.08641348725476      0.00572817141146
  C   0.14072381663806      1.26321963895489     -0.03201921608287
  N   -1.01966871252204      1.92012887374630     -0.06155177730188
  C   -2.14769496800997      1.20590706151889     -0.05039602772237
  C   -3.46331799393058      1.60646830371472     -0.08037732266465
  C   -4.20918218480177      0.38575874824316     -0.03820875100409
  N   -5.53481598927026      0.26699352385759     -0.04769099087032
  H   -6.14007314332857      1.06565399185637     -0.07241448451535
  H   -5.93918184401411     -0.65243981925400     -0.00398715189778
  N   -3.44201019981991     -0.74095919181427      0.01410390837183
  C   -2.19091046150101     -0.27889374281896      0.00613740923416
  C   -0.98849753323862     -0.96706038612235      0.02730169999066
  C   -0.94820144248779     -2.38083664286613      0.05487642851110
  N   -0.93674798836502     -3.54049609974270      0.07942905043721
  C   0.23139205165104     -0.22815026447874     -0.00656959582337
  N   1.31468104564786     -0.97790304056173     -0.02291752002984
  C   2.61657955222408     -0.72376974037857     -0.03497902211809
  N   3.37764232980623     -1.83603062087164     -0.11159662377982
  H   4.38036615743306     -1.80726572295211     -0.08171754583516
  H   2.90504186686267     -2.72197320760330     -0.09870110908813
  H   -3.84772103621619      2.61113445376637     -0.12372692742052
  H   1.02751096845819      3.13860586480635      0.00959002303514
  H   3.28328089242104      2.63540993042187      0.08552591260927
