23
Coordinates from ORCA-job ./opt_b97-3c_parallel
  N   -5.29457866677416     -0.33919388958005      0.38548677444926
  C   -4.13709608441371     -0.37237114048960      0.28062257547359
  C   -2.73239964982120     -0.34736435359998      0.12877230226284
  C   -2.05391187957320     -1.56438343533390      0.13698183763500
  C   -0.71170920118503     -1.81740327143244     -0.04338811241990
  C   0.38016972134033     -0.94365065880500     -0.12447150156514
  N   1.56693216522822     -1.52844580421902     -0.31470209917302
  C   2.63347172631481     -0.74682841713213     -0.16315188054601
  C   3.98685780615243     -0.96773758793847     -0.26485839407882
  C   4.57934399354336      0.26397163182044      0.14006842805460
  N   3.72482829095459      1.24188813943915      0.47699543415754
  C   2.50469575675281      0.67904250402881      0.29093633627557
  N   1.35254232483057      1.28088490618344      0.41819884036660
  C   0.25357757921504      0.52794987928792      0.13446998345381
  N   -0.84869335363934      1.23691882664648      0.06668221602154
  C   -2.12936794637082      0.92729034985366     -0.09111737548004
  N   -2.91324008044072      1.97582009173988     -0.41704766798741
  H   -2.50197827738620      2.89118751975651     -0.37532701474405
  H   -3.91325178208305      1.89553405352026     -0.45992189985905
  H   5.64434027936832      0.45044195822273      0.19283249993984
  H   4.49645353298759     -1.86816572350993     -0.56277625393136
  H   -0.42365347707374     -2.85882119544894     -0.10423112290504
  H   -2.68128655802956     -2.43535904270733      0.26968660869706
