27
Coordinates from ORCA-job ./opt_b97-3c_parallel
  N   -4.88712779877930     -1.53810407933704     -0.00404194286419
  C   -4.12181045412868     -0.66187927784331     -0.00257470358214
  C   -3.21912032508483      0.40711015598541     -0.00034244551850
  C   -3.54732913858804      1.76404490943575      0.00211722091625
  C   -2.38589179420455      2.57789207285411      0.00406860430832
  C   -1.28475076164214      1.74567937662460      0.00294473996859
  N   0.00758055200756      2.07367274162828      0.00371979146604
  C   0.92857863783898      1.11822453537960      0.00238062016239
  N   2.18528581581249      1.57173647502280      0.00198755002063
  C   3.34209826788376      0.94017115872189      0.00174869923499
  N   3.70391435691092     -0.36881390438009      0.00372251517469
  C   2.86400656738150     -1.36794104462967      0.00361794177104
  N   3.41485097730892     -2.60260951770385      0.00552776634022
  H   4.41556772979933     -2.68211413330079      0.00828387127561
  H   2.86255700358168     -3.43856924681236      0.00741732549066
  C   1.42265235777889     -1.36286605621008      0.00119831455181
  C   0.54651806846135     -0.32811010123956      0.00064751745855
  C   -0.87574160159002     -0.66457420434150     -0.00107070675694
  C   -1.25780527882774     -2.02806904260328     -0.00336675195713
  N   -1.49696446453787     -3.16388359549044     -0.00537443960871
  C   -1.78962036938144      0.34396817356206      0.00019077489980
  H   0.98288159491436     -2.35245594782349      0.00003100835310
  N   4.41663480052462      1.76180987327007     -0.00008372744812
  H   5.34256847175137      1.37997757418562     -0.00104772484113
  H   4.26864548410063      2.75314092418436     -0.00189298675584
  H   -2.36185603774945      3.65415283106102      0.00604713628478
  H   -4.56161051124232      2.13297944709989      0.00241961565521
