32
Coordinates from ORCA-job ./opt_b97-3c_parallel
  N   4.61989846731112      2.13614178801379     -0.85288457174117
  C   3.82531941585324      1.33339297892189     -0.57188294132937
  C   3.01177336864577      0.26430973446103     -0.19191019190792
  C   3.56019849235365     -0.95401636843019      0.32701877356401
  C   2.50579698493407     -1.85522250499871      0.67099225112736
  C   1.32516245448787     -1.22618609025092      0.37094757776392
  C   1.61942173882984      0.12367955166886     -0.15229797527912
  C   0.57248090568134      0.99118943661992     -0.42755877698757
  C   0.85042307559668      2.25988338613441     -0.98408138500822
  N   1.10410900031167      3.25089226788189     -1.53331234606952
  C   -0.77468246092578      0.58772583475088     -0.15453433313073
  C   -1.73262286129532      1.55918975802896      0.15592251286209
  C   -1.31649148529212      2.87069090405984      0.49294673661152
  N   -1.12895963334741      3.94198429265606      0.90339356101399
  C   -3.15098592838856      1.35386233614862      0.34925641665220
  N   -3.88908952110322      0.42375426484415     -0.23895270600725
  C   -3.48038937658057     -0.72320758728750     -0.72566148904302
  C   -2.26857039362188     -1.39802786514190     -0.53837901148431
  C   -2.28200896361817     -2.72607785036851     -1.03590789985754
  N   -2.35414890281516     -3.77673014800216     -1.52568627833468
  C   -1.04856127898487     -0.85892377158674     -0.04073391178156
  C   -0.00331670690539     -1.69610438298073      0.36331491487358
  C   -0.21213205390694     -3.03138269447198      0.77787931649743
  N   -0.28169476839164     -4.10435813143009      1.21583649619560
  H   -4.23522051649330     -1.26160264718355     -1.28712302949031
  N   -3.83551158752130      2.23665394588099      1.09407952160946
  H   -4.83839366314044      2.18100558089819      1.07426073734544
  H   -3.40459936600931      3.06301370395380      1.46956415094196
  H   2.62613163470675     -2.85672741468675      1.04908531581611
  N   4.85968201953977     -1.18682391975201      0.45504964235007
  H   5.20443773617368     -2.05074050272872      0.83237832252349
  H   5.53313910721610     -0.49153686162777      0.17607010281032
