25
Coordinates from ORCA-job ./opt_b97-3c_parallel
  N   -5.94123746587545     -0.03399553085630     -0.00054846707856
  C   -4.78037450462244      0.00335610077922     -0.00013469848780
  C   -3.36137176629805      0.03546194430246     -0.00018071511975
  C   -2.71478712934074     -1.22016155183099      0.00022078260480
  N   -1.44380340074784     -1.53682810865787      0.00019581230111
  C   -0.34462536232905     -0.76363423327917     -0.00015713552862
  C   0.85644317222072     -1.47122013947893     -0.00009951039693
  C   2.06365480889126     -0.80005909733741     -0.00037018241663
  C   2.02237064877417      0.69299656844328     -0.00071371771167
  C   3.32149611785590      1.15479160095045     -0.00091731622991
  C   4.16701943239795      0.00631721903851     -0.00075908393104
  N   5.50745633198853      0.04916821513299     -0.00051683781782
  H   5.99999269374367      0.92239733814680     -0.00273018427747
  H   6.05490418670227     -0.79091566412058     -0.00232988018726
  C   3.39079977449547     -1.18549997272118     -0.00040521001817
  H   3.78141844592423     -2.19067222098779     -0.00014788832303
  H   3.64042832459650      2.18400017410381     -0.00112615594701
  N   0.88920536825260      1.39553324208615     -0.00082865121456
  C   -0.27371088599339      0.73780224917946     -0.00058177764792
  C   -1.39781386720101      1.57385081708160     -0.00079912322399
  C   -2.74774753672336      1.28722554528748     -0.00063031939328
  H   -3.41256859648454      2.14049970627177     -0.00088032847903
  H   -1.13190940656304      2.62283362924683     -0.00115071451396
  H   0.79589331227158     -2.55065829932132      0.00019715742592
  H   -3.38092202553597     -2.07765832515923      0.00057831531258
