24
Coordinates from ORCA-job ./opt_b97-3c_parallel
  N   -4.05456744685010     -2.63188516686243      0.14839055913272
  C   -3.54996871807982     -1.58500882740049      0.09631924562354
  C   -2.93908956379294     -0.32847059518190      0.03391772856094
  C   -1.54539840975133     -0.06112564315819      0.02746014317624
  C   -1.37894344955021      1.42377371297699     -0.04742075387226
  C   -2.64669130143244      1.98312630909146     -0.09262712933035
  C   -3.57567654253188      0.92494574475051     -0.04295840639912
  H   -4.64819784151458      1.04633105622933     -0.05980317908377
  H   -2.87954381740563      3.03293818031528     -0.14822450645164
  N   -0.18189799907704      1.99206233001572     -0.03423071083028
  C   0.88603762491945      1.18733392867632      0.02057220888524
  N   2.04928547871737      1.85017767542449      0.07982286262574
  C   3.27497675014715      1.37728081842703      0.09760172844677
  C   3.80627063716673      0.09187136960005      0.01024121422382
  C   3.12419144820212     -1.11612236694913     -0.05887770044875
  N   3.83069410947575     -2.27563056637401     -0.18728546028635
  H   3.37263654191564     -3.15330258014455     -0.02338737894514
  H   4.82124381739925     -2.26926000212674     -0.02734596779640
  C   1.71735074857270     -1.23860208451580     -0.02148516294903
  C   0.71423675268466     -0.29939048740178      0.03739939027033
  N   -0.52983254203024     -0.87594498143006      0.06394942762136
  H   1.32727034956111     -2.25021729500204     -0.03959341012730
  H   4.88967983209259      0.04281124040538      0.00621176469733
  H   4.02680510556214      2.15881177103424      0.17762816545643
