31
Coordinates from ORCA-job ./opt_b97-3c_parallel
  N   -6.09518058927070     -0.15759957830295      0.41913959739849
  C   -4.94115432330661     -0.16679881061910      0.26551827832468
  C   -3.54731845256732     -0.15111207626958      0.07585300504628
  C   -2.90432887600888     -1.40526133029011     -0.24289402459101
  N   -1.63374145731969     -1.71087765464717     -0.19491609723159
  C   -0.52486076571867     -0.96902254463669     -0.05644386274206
  C   0.65701070287833     -1.68691119473999      0.09505490895774
  C   1.88832408709664     -1.06164546203616      0.11135536190567
  C   1.99551694662468      0.38974328523122     -0.07273066580643
  C   3.39474749316289      0.72147087358484     -0.06517681531619
  C   3.97031972613844      1.99184971872592     -0.20320999819493
  N   4.47122131232493      3.03468437957037     -0.31490919422155
  C   4.09289951540549     -0.46379745294604      0.11529459041557
  C   3.19029708760234     -1.56392853259756      0.22479651789766
  C   3.53793236783662     -2.90684380656750      0.40432894880591
  N   3.80453030930774     -4.02947841696182      0.55327394635602
  H   5.16649695007786     -0.54486604671009      0.16615715090055
  C   0.85893259156956      1.14212686043082     -0.21081884071596
  C   0.91787315045879      2.54551993923411     -0.37491308691909
  N   0.87899970080343      3.69847954135107     -0.50764109246490
  C   -0.45359748360880      0.50621302537956     -0.12599244598505
  C   -1.52663360374682      1.33999980726706     -0.03614520186824
  C   -2.91985664586969      1.09185251952259      0.15719963401528
  N   -3.65424656339379      2.19451545927381      0.41185242851923
  H   -3.21961032716889      3.09317028054876      0.50364918467437
  H   -4.64769864721908      2.14450771603412      0.55503105755725
  H   -1.28959499220543      2.39597954104928     -0.06715186564202
  H   0.58565939355860     -2.76302347519897      0.15632647773824
  N   -3.72073930882733     -2.43007366435441     -0.59113026087469
  H   -4.71997141480898     -2.36320745890597     -0.52529191159617
  H   -3.30717035290564     -3.34403363221941     -0.63454457804305
