28
Coordinates from ORCA-job ./opt_b97-3c_parallel
  N   4.68555299782520      2.17540222707613      1.22001673709937
  C   3.88336579174191      1.41756475948655      0.84848445356700
  C   3.01601374835788      0.42090924090383      0.40485535531126
  C   1.65115735888073      0.48161339907853      0.10452735297053
  N   0.85633941807583      1.53162982280147      0.08717135067579
  C   -0.42022965016978      1.33948867611794     -0.28011938086673
  N   -1.06337997214770      2.40981709632557     -0.70315875570573
  C   -2.34971085881710      2.54163058534871     -0.96900240899335
  N   -3.39855144571187      1.94349653753642     -0.45013279507986
  C   -3.36263860226438      0.78146795826368      0.20403664365448
  N   -4.44129768789471      0.52449187675883      0.96023141548819
  H   -5.20870073736699      1.17034215854675      0.90991989559176
  H   -4.58744978594474     -0.37083788924315      1.39216287415168
  C   -2.35103841240187     -0.23326789421933      0.06658061511363
  C   -2.75584504562651     -1.50985164797126      0.52068998243350
  N   -3.18828400433785     -2.48047793485160      0.99282083109272
  C   -1.01696114850386     -0.03350735716145     -0.32666588620622
  C   -0.13078600377893     -1.10369748909979     -0.56135544512247
  C   -0.55057092791783     -2.39750186129166     -0.93815637029607
  N   -0.79946126165651     -3.46723975387478     -1.31619705465966
  C   1.23789416232006     -0.87813094714394     -0.35975976320647
  C   2.34368301897498     -1.68904017574814     -0.39121350949088
  C   3.44161016656813     -0.91426877050184      0.08982449579693
  N   4.68899857664471     -1.33987269346796      0.23653682463037
  H   4.95619921626388     -2.27613294270573     -0.00798938871642
  H   5.40327688842109     -0.72078741870820      0.58357372820814
  H   2.38179839294793     -2.72815603036411     -0.67374883863552
  H   -2.58581265738261      3.36109775320689     -1.64043251860627
