28
Coordinates from ORCA-job ./opt_b97-3c_parallel
  N   -3.78419863780249     -3.15295815972858      0.06221877334174
  C   -3.26101679854463     -2.12040670245420     -0.02174839675717
  C   -2.69262019372426     -0.81863900713632     -0.13571287811445
  C   -3.63479559359459      0.13973663463604     -0.59511665028575
  C   -3.53541551161350      1.49781728268085     -0.57182282665396
  C   -2.47909432417484      2.26434697214940     -0.05592071870043
  C   -1.19989517429217      1.86054444379457      0.23875909998945
  C   -0.43724309445669      2.85009219211033      0.92290140414836
  N   0.08584038267890      3.66125745446479      1.56756726415148
  C   -0.56931750982713      0.57416714571643      0.00819196665035
  C   -1.32239855502109     -0.67758183960665      0.12164451203400
  C   -0.60026405904568     -1.87767667509693      0.39473006178466
  C   0.75524486890279     -1.91268808051057      0.32962025665736
  C   1.50771105706914     -0.71283924034597     -0.02363447740080
  C   2.84044169863406     -1.08507083421849     -0.12102941764528
  C   3.95803666193339     -0.30651758956001     -0.44378981932813
  N   4.92830181870989      0.27809058827366     -0.70626481490864
  C   2.92493055888215     -2.50597740546793      0.19257456019752
  C   1.68376002435294     -2.99741898542441      0.46077696991083
  H   1.42823016346226     -4.01316128296546      0.71219095245941
  H   3.85297546922585     -3.05456047924010      0.19907850520068
  C   0.81789794525866      0.51180357734548     -0.14760697649646
  C   1.55298076504966      1.66878466412743     -0.50940182203753
  N   2.15800179107584      2.58055032878007     -0.89422861837281
  H   -1.15289988042322     -2.78939064951753      0.56831945155499
  H   -2.70015238775569      3.30420487281299      0.14234668314008
  H   -4.40723324186952      2.05019691407539     -0.89739463998053
  H   -4.57448880629062     -0.27332344339536     -0.93478992013866
