35
Coordinates from ORCA-job ./opt_b97-3c_parallel
  N   4.97393138868143      1.63035797068015      1.00959289643612
  C   4.10395022372050      0.92836022181171      0.68298990029890
  C   3.19239794843125     -0.03779841137327      0.25714798949144
  C   3.62747321015008     -1.31612766597629     -0.24996244714961
  C   2.50659479214706     -2.08716152525916     -0.65287423897087
  C   1.38446428396732     -1.32947969095759     -0.39769123327759
  C   1.80116612352544     -0.02050848953280      0.14493301210409
  C   0.84133396742031      0.96382028197707      0.35177172876513
  C   1.23046626507877      2.20195752089264      0.91011540376304
  N   1.55939923511046      3.16872489723458      1.46337271115330
  C   -0.52938354224110      0.70977351089561      0.03383303564114
  C   -1.35610376113782      1.78653208194795     -0.32195199744911
  C   -0.73305282308620      2.99137219916777     -0.73124528457995
  N   -0.36951328991056      3.99727810455156     -1.18718083449615
  C   -2.78682293047296      1.82724741828098     -0.45002689679764
  C   -3.66776651220684      0.87404338615980      0.03656446626329
  C   -3.43307366394659     -0.40705014161612      0.52703334433426
  N   -4.47592448335836     -1.02878728837035      1.13164555091970
  H   -5.37990266552026     -0.59673610249225      1.13869963752585
  H   -4.43792051012738     -2.01037340492564      1.34412691598984
  C   -2.21912554111899     -1.14386057610280      0.37693176448747
  C   -2.31655886604509     -2.48098070945946      0.82786200277957
  N   -2.51613102221404     -3.52163165870451      1.30788177520712
  C   -0.95496274085152     -0.69539571591996     -0.06661363384686
  C   0.01860281638849     -1.64050498665963     -0.46152711766663
  C   -0.32766558080548     -2.92111346574211     -0.94462746795367
  N   -0.51787420020005     -3.95753012575361     -1.43424886368836
  H   -4.70853302404512      1.17668757510209      0.03917006507679
  N   -3.32849808032238      2.92737336867985     -1.03153483363568
  H   -2.76437634297855      3.73734187880551     -1.22176177201305
  H   -4.32040918995689      3.06743701232024     -0.99843626792584
  H   2.53091877347616     -3.09500189797781     -1.03180785220832
  N   4.90350474173041     -1.68010501401128     -0.30921936010000
  H   5.62698497433118     -1.05638156021587      0.00948854462495
  H   5.17909102349404     -2.56822856866238     -0.68642691020435
