31
Coordinates from ORCA-job ./opt_b97-3c_parallel
  N   -4.82404844263320     -2.12115396267284     -0.51983710199772
  C   -3.95898027245741     -1.35163164402717     -0.39278884081978
  C   -2.88050856344078     -0.46473957642759     -0.19710876968052
  C   -3.11470627710706      0.87310154749347     -0.47821446148171
  N   -2.42618742890383      1.94063076642043     -0.14477660512155
  C   -1.16938734928673      1.98449218820169      0.29147722415048
  N   -0.89433729301551      3.09881297203950      0.99302804410267
  H   0.04980455306691      3.31609468883232      1.26563185760210
  H   -1.59330110901762      3.82076031089658      1.01544186508548
  C   -0.11638328982040      1.02434376584577      0.06046902824118
  C   1.20400546273119      1.48068085289708     -0.11800773025661
  N   1.50873427483582      2.83889364496682     -0.26470011431312
  H   2.44640618482861      2.97734652767540     -0.60417213650516
  H   0.85823319664689      3.35132544617221     -0.84042996882038
  C   2.27256894842984      0.57803378854730     -0.10971875222926
  C   2.00599422055165     -0.83815761148328      0.04649181414967
  C   3.28259006509203     -1.46201695111377     -0.07364665168701
  N   3.57117164619924     -2.80603032902084      0.06226411107054
  H   4.51126414595325     -3.01656956287973     -0.23638957965243
  H   2.90289953144790     -3.42725925894986     -0.36541359252478
  N   4.24475833629839     -0.55306648290171     -0.25371564529146
  C   3.64681939203469      0.67718173766040     -0.28924452739646
  H   4.25686765181570      1.55704864409910     -0.43035619488395
  C   0.72788018515634     -1.29516950784562      0.21300846773289
  C   -0.37427819030173     -0.41870372892006      0.20773726181701
  C   -1.65406068229469     -1.01985786664141      0.31799342248890
  N   -1.76065521134660     -2.26867724041297      0.82682807962614
  H   -1.02733429580114     -2.66513211227233      1.37980509271678
  H   -2.64809199242133     -2.73964827503931      0.83146854529229
  H   0.55500940249640     -2.36217113724809      0.23640263811229
  H   -4.06348895333688      1.09155257310859     -0.95856746202671
