24
Coordinates from ORCA-job ./opt_b97-3c_parallel
  N   4.69641153813683      1.91912138250327      0.05724718143814
  C   3.93492944057786      1.03961992235973      0.03923395661027
  C   3.03912037717059     -0.03310919562443      0.01769664465746
  C   1.65266099454934      0.02053950504029      0.00406948844927
  C   1.16210477110707     -1.39010971323447     -0.01612895759308
  N   -0.10696869183343     -1.68611975456668     -0.02967839690480
  C   -0.98071128210358     -0.62100043060471     -0.02394427702788
  C   -2.29766945506855     -1.00647396266259     -0.03933598785869
  C   -3.50490953842991     -0.25275496466217     -0.02588797008666
  N   -3.68389513940266      1.05921540525057     -0.01719615724859
  C   -2.71843195165556      1.97705690742951     -0.02235837082440
  C   -1.34148438368687      1.88735226875118     -0.01337134914076
  C   -0.48800874985673      0.77182076086228     -0.00817018926146
  N   0.82051923251272      1.05289780788463      0.00605848023266
  H   -0.80851807396804      2.82930258705424     -0.00760892723123
  H   -3.10860228908944      2.98940825233314     -0.02521271986623
  N   -4.65579346455171     -0.97902211230541     -0.05699110700387
  H   -4.65341545580664     -1.95955912703987      0.15187182900058
  H   -5.51258849611646     -0.47430278432333      0.08544110825665
  H   -2.41376728179703     -2.08376780574983     -0.06278389186613
  C   2.29755144873588     -2.24533738274864     -0.01468334473427
  C   3.40495884566869     -1.43645894439791      0.00542717336683
  H   4.43026613281944     -1.77315935963724      0.01175070209158
  H   2.27625094338820     -3.32165398051153     -0.02716804455540
