25
Coordinates from ORCA-job ./opt_b97-3c_parallel
  N   -2.85875828473106     -3.18061876463604      0.00198437661510
  C   -2.63931518725868     -2.04200757376896      0.00112213984427
  C   -2.53821964878898     -0.61792325439058      0.00027533020379
  C   -3.76999633610191      0.03621741919066      0.00006431754807
  C   -4.03928718999044      1.39503077521029     -0.00064809055439
  C   -3.14697990036199      2.45388634105004     -0.00135527837195
  C   -1.76427167131635      2.40811587530173     -0.00156326742198
  C   -0.87025996771589      1.33169911856968     -0.00111102377536
  N   0.42720340863374      1.72983667627024     -0.00158076649548
  C   1.33943861747027      0.78968706847435     -0.00120089173806
  C   0.98468385862865     -0.64830250002699     -0.00027684202545
  N   -0.26740134543556     -1.04901021743343      0.00018288799973
  C   -1.21842395930819     -0.09637575148308     -0.00022078337150
  C   2.18573886158110     -1.38120276805642     -0.00006180395075
  C   2.32726941183964     -2.77589939775743      0.00073515533752
  N   2.45716255203731     -3.93009591242355      0.00142271125873
  C   3.23962005298340     -0.43949913908546     -0.00082882917776
  C   2.74912779129783      0.87954059937220     -0.00152626606212
  C   3.51188955662637      2.05513828806640     -0.00240464394922
  N   4.14109939352000      3.03173203675495     -0.00316021951029
  H   4.28550199798303     -0.70053170132732     -0.00088387108148
  H   -1.25033925075229      3.36093660548154     -0.00218850980991
  H   -3.58167851953714      3.44450208854169     -0.00182640702042
  H   -5.08967098606836      1.65788839368906     -0.00064269544513
  H   -4.63092535013450     -0.61712110608316      0.00054401275400
