24
Coordinates from ORCA-job ./opt_b97-3c_parallel
  N   1.36828375915350      3.89167170896962     -0.01246979908756
  C   1.41175112284468      2.73215830607352     -0.00648954646938
  C   1.60991714520130      1.32250453034252     -0.00034469089774
  C   2.96401482306693      0.94993545491749     -0.00325602687722
  N   3.57984933813374     -0.20922099286712      0.00192252367741
  C   2.98575646967493     -1.40862747087136      0.01517413675920
  N   3.86297541110220     -2.44007826086018      0.04306516864335
  H   3.56625834602695     -3.39285900430350     -0.04617207649380
  H   4.84089407002304     -2.22679983895387     -0.03223416854026
  C   1.61730145118342     -1.73703235798436      0.01556448327664
  C   0.47153045658415     -0.96131546275530      0.00554716305985
  N   -0.67311571855280     -1.69713310600820      0.00250849387112
  C   -1.79107299078954     -1.00903598045555      0.00275410793449
  N   -3.04781539267867     -1.46176928103074     -0.00007571040759
  C   -3.75529056359744     -0.30214879035091      0.00363547379936
  N   -5.08075070923917     -0.30065751729579      0.00281873597008
  H   -5.57675513339837      0.57194814095097      0.00590399350350
  H   -5.58239493707475     -1.16999448186247     -0.00026292175521
  N   -3.06998390150285      0.89594975434585      0.00820206426672
  C   -1.81575299845820      0.48025683909609      0.00734101351385
  N   -0.70705016810028      1.20897732538343      0.00816749621744
  C   0.43953370498957      0.52304500923129      0.00620435037461
  H   1.38669248101537     -2.79557138579880      0.02369232154015
  H   3.64748669179248      1.79253390858790     -0.01311889137894
