24
Coordinates from ORCA-job ./opt_b97-3c_parallel
  N   -1.94571039896406     -3.48619464837360      0.00316686182615
  C   -1.88691272478828     -2.32721413536047      0.00266017320127
  C   -1.99341902477586     -0.90598993053306      0.00209091901261
  C   -3.31828219553162     -0.42960059149532      0.00231784773459
  C   -3.75795401712250      0.86564324211782      0.00172353728092
  C   -2.98025580077861      2.03717296697004      0.00079972283526
  N   -1.68644401658238      2.21536922738515      0.00064859413760
  C   -0.68475057491199      1.30591655913702      0.00109651869360
  C   0.58595015888585      1.86924991798945      0.00107995924613
  C   1.71052989688100      1.05864036786680      0.00127412711305
  C   1.49922371394396     -0.41251705233810      0.00126644254433
  N   2.65855981599369     -1.07545127082236      0.00119162677003
  C   3.60388250765328     -0.09610263031061      0.00118106691126
  N   4.89360996047899     -0.43648415764686      0.00110355774099
  H   5.13824239535488     -1.41094906937416      0.00115079979109
  H   5.62402132812815      0.24963554258415      0.00122142425722
  C   3.07508533463588      1.23281250968387      0.00122526507193
  H   3.63670896653208      2.15271755324954      0.00119039378790
  N   0.30373789078999     -0.97726943000612      0.00137307330176
  C   -0.78011442875166     -0.18959396709550      0.00141935848361
  H   0.64804716186552      2.94807359760458      0.00083169827941
  H   -3.54549627715809      2.96604744711103      0.00022349004282
  H   -4.83032453452981      1.01667634585326      0.00193254862353
  H   -4.07727097054838     -1.20013007549656      0.00298719561295
