34
Coordinates from ORCA-job ./opt_b97-3c_parallel
  N   -5.81628142742182     -1.54087301652287      0.70479909380326
  C   -4.89424952197497     -0.90400580114938      0.38522167002423
  C   -3.74189227399097     -0.17818607353850      0.01778698643891
  C   -3.97072561820058      1.07598832526163     -0.61841162474131
  C   -3.10289514947672      2.10021546720953     -0.81348828846545
  C   -1.75235122008648      2.17230676783435     -0.40468669903621
  C   -0.89467955690396      1.17187891209218     -0.02316243551558
  C   0.48326065202404      1.56769574728345      0.26294524109078
  N   0.75271379727891      2.85981045587300      0.63904097802964
  H   0.01359076820257      3.32779772923127      1.13585744971474
  H   1.65615107596768      2.99343362667372      1.06946232423924
  C   1.49128799634078      0.65578965651375      0.05599804803504
  C   1.18622195732093     -0.73694022189359     -0.21683074688408
  C   2.39191105572936     -1.43055722713609     -0.28240969341083
  N   2.58626961348813     -2.78204421031645     -0.42823637837965
  H   3.52466780982201     -3.05855157351026     -0.66812589313509
  H   1.89923380926285     -3.26316729909124     -0.98355049987878
  C   3.45827646553321     -0.48459485147981     -0.06700825925071
  C   4.82260614685738     -0.77212116522974     -0.12850768336489
  N   5.96211164321465     -1.00941396962537     -0.18701462843470
  C   2.90628990307607      0.78895175758173      0.12737797125595
  N   3.59624617322848      1.97052030618565      0.35216564561934
  H   4.59891408029365      1.84869869962151      0.35554990147515
  H   3.34752033714083      2.71362488213082     -0.28586777780293
  C   -0.14107992931033     -1.16509151659385     -0.17141224131556
  C   -1.18396955888482     -0.27087398804334     -0.02825931830906
  C   -2.50612308450557     -0.79342357454483      0.27473936457274
  N   -2.53310036438024     -2.03603929517345      0.81218993090838
  H   -1.71456609633760     -2.37876071088512      1.27948756029567
  H   -3.41387767976657     -2.43146996834677      1.09778698483201
  H   -0.35217860298638     -2.22307163424785     -0.24893875044656
  H   -1.31861541517389      3.16015622450051     -0.49178387962520
  H   -3.50465095090721      2.99388681341009     -1.27280744131505
  H   -4.99639181657201      1.24335107082459     -0.92267997182309
