31
Coordinates from ORCA-job ./opt_b97-3c_parallel
  N   4.74132785164221      2.53416068217935      1.02390016744861
  C   4.01304297969312      1.67541432527017      0.72463740662942
  C   3.22467141412336      0.58949839027699      0.35110642985376
  C   1.81705588266621      0.50129176798747      0.22391858721680
  N   0.92123787634064      1.43439437366804      0.38372996306817
  C   -0.39267985323488      1.11732998274317      0.15483828882799
  C   -1.19750175431350      2.22088245013744      0.04262266913061
  C   -2.57078395745862      2.29935288023558     -0.31735094609408
  N   -3.51113719867075      1.39065972458086     -0.19045195683645
  C   -3.36043140159779      0.13500640850821      0.23717591041876
  N   -4.51454680863291     -0.41809661444756      0.66885441910128
  H   -4.58500882006129     -1.39890949031451      0.87358165157735
  H   -5.35596611884652      0.10919623606151      0.52733682100810
  C   -2.18558042827573     -0.67576885057144      0.21616510964705
  C   -2.42192370751826     -2.01831763516345      0.58512993369506
  N   -2.73693137502990     -3.06684122678319      0.98005382265284
  C   -0.84775649255712     -0.27531483435928     -0.04243158776755
  C   0.14022732867271     -1.22159756585411     -0.36170138141106
  C   -0.14516567541689     -2.51765639077840     -0.84586089351295
  N   -0.25968916378442     -3.56831232389418     -1.32800031440119
  C   1.49800843005026     -0.87250037947394     -0.23880233779957
  C   2.66824841676070     -1.55519057621814     -0.41990118027848
  C   3.73959685318698     -0.66978711051213     -0.04804607781972
  N   5.03239808508765     -0.98551292625383     -0.07572528971229
  H   5.34371336231293     -1.89019118721178     -0.37667440331138
  H   5.72863269757497     -0.31366066914777      0.19950699208398
  H   2.78437504367299     -2.57458125110929     -0.75057748147586
  N   -2.99464405667224      3.50787557010506     -0.76936410028390
  H   -2.33413762541680      4.18076189544910     -1.11050287133217
  H   -3.93931794672426      3.57029600246761     -1.10510315475746
  H   -0.67050920116729      3.15897117422390      0.15647114713523
