26
Coordinates from ORCA-job ./opt_b97-3c_parallel
  N   -5.63409926115489     -0.56269632681309     -0.52691354729523
  C   -4.48713931354518     -0.58418065479307     -0.35434249673906
  C   -3.07944796122614     -0.60872635121151     -0.14849449418284
  C   -2.46377150891521     -1.84446203189242     -0.16853707100777
  C   -1.12096508915560     -2.13068324406325      0.06517203676031
  C   0.00429725442350     -1.32356066253407      0.15898498437866
  N   1.13899541585677     -2.06753954267844      0.31623353999177
  C   2.29535805520071     -1.47082105162823      0.20646363458811
  C   2.44892736807830     -0.02822843338468     -0.12755760302582
  C   3.78765549027335      0.22014863397651     -0.27017230637238
  C   4.48128620347012     -1.01214893942737     -0.00478646314908
  C   3.59613307425469     -2.03086847722946      0.28023940285457
  H   3.82391468929406     -3.05955443742048      0.50024010287619
  H   5.55597077851909     -1.11455810150142     -0.03259452026806
  H   4.24779028501165      1.16217035868642     -0.51907092193137
  C   1.28387261490724      0.75079932160790     -0.18722020558019
  C   1.45490613119045      2.10950597141907     -0.55423363549282
  N   1.71829176883626      3.17099314272692     -0.94160268275408
  C   0.03717660025532      0.14962287091376      0.02749245378952
  C   -1.13404029883558      0.95212717519732      0.23933167329416
  C   -0.94808602206519      2.29524396326294      0.68731908853119
  N   -0.89924077019752      3.35825780513656      1.14952823356372
  C   -2.47401533520226      0.63252348207137      0.13585057459054
  H   -3.15789977949572      1.45322959210110      0.29538876331571
  H   -0.87286697372606     -3.18100961023156      0.13498006404920
  H   -3.10536100818079     -2.69835996625611     -0.33561429991892
