27
Coordinates from ORCA-job ./opt_b97-3c_parallel
  N   1.07697743459276      3.87830668248865      0.01422253091511
  C   1.33983341999564      2.74800612471238      0.01517235034711
  C   1.80189732631275      1.40214794245414      0.01813655928862
  C   3.19679186678620      1.29082338831510      0.03124371751758
  N   4.02074463936476      0.26244458710018      0.01935279671407
  C   3.66739093207878     -1.02230779321055      0.01580160527719
  N   4.72574034363534     -1.87620100663974      0.02553750245467
  H   4.61096968705608     -2.85087845283742     -0.17846700528944
  H   5.63493767480860     -1.47211708308913     -0.11229771115574
  C   2.38203916145743     -1.60565036013023      0.03707287637730
  C   1.11446287330571     -1.05572976990904      0.02920212158225
  C   0.03022425492974     -1.96919963310808      0.04104833498999
  C   -1.24891434726972     -1.49651001484339      0.02501695111047
  C   -1.44310881482775     -0.03678946613045     -0.00450886947891
  N   -0.44751533090243      0.84903489093031     -0.00939558418785
  C   0.79903487027544      0.39238611507911      0.00865510145878
  C   -2.81695092937450      0.14700439911677     -0.02254601459468
  C   -3.59266712676622      1.30406525087414     -0.05285083581444
  N   -4.32761004850783      2.20657403823781     -0.07808083988208
  C   -3.36178738939198     -1.20582986384232     -0.00098671383488
  N   -4.66331691538454     -1.47900504397506     -0.00845433226057
  H   -4.96791649311134     -2.43582392615663      0.00981835939419
  H   -5.34780820156785     -0.74437262960485     -0.02743369710489
  N   -2.42779033279958     -2.16542732853505      0.02690410982979
  H   0.22560136426968     -3.03278556714341      0.05870801796570
  H   2.39052858836006     -2.69027755930676      0.06155587546093
  H   3.71295838667472      2.24467249495356      0.04402342281974
