24
Coordinates from ORCA-job ./opt_b97-3c_parallel
  N   -4.67109399487186     -1.88029072036481     -0.72737869685612
  C   -3.97971075642343     -0.97882764909906     -0.47237571779546
  C   -3.10808499563200      0.07073514904365     -0.16931269253285
  C   -1.68122487200534     -0.02235994588229     -0.12859800492999
  C   -1.16298678919454      1.32154113097374      0.24059076596685
  N   0.14277401624990      1.61574872605204      0.30590217784102
  C   1.01746903329114      0.64546042209279      0.10547407797357
  N   2.29059935546879      1.03853799073920     -0.03831720569921
  C   3.39037524881856      0.32822313821505     -0.08478326540428
  N   4.47342944385065      0.91348276814914     -0.64527363347975
  H   4.41087964487349      1.89221801671412     -0.86230648960662
  H   5.37689604983875      0.52503634932055     -0.44335762939521
  N   3.66670715745876     -0.90299494945921      0.45509460183881
  C   2.77434847095672     -1.83806435637652      0.53930569867271
  C   1.41536145871029     -1.84929552428131      0.12910783989273
  C   0.58038156839123     -0.78207952289379     -0.06921145842811
  C   -0.80452314427774     -1.04235250459124     -0.27635670721861
  H   -1.13315457594682     -2.05666703745034     -0.46784590923519
  H   0.96194766302147     -2.83380052960366      0.09020704232494
  H   3.13117642285580     -2.76403809858741      0.98382726499536
  C   -2.25512762274655      2.14803777892054      0.42119462202467
  C   -3.42597567897964      1.38660100761538      0.17235042723612
  H   -4.43441179847322      1.76595955810685      0.23695783029384
  H   -2.22227639733442      3.18934724314656      0.69355419542077
