25
Coordinates from ORCA-job ./opt_b97-3c_parallel
  N   -5.96730752459292     -0.13996927777132     -0.00040337678146
  C   -4.81731302748318      0.01049852801400     -0.00035663359261
  C   -3.40594647019571      0.20166096571655     -0.00029636751145
  C   -2.96333740467787      1.52105930650966      0.00031539054565
  C   -1.66060935396094      1.98855157123461      0.00060567747694
  C   -0.42976846311914      1.33268309720260      0.00029715466826
  N   0.62231132617235      2.19162857899647      0.00082508932988
  C   1.82476869948162      1.66503791671944      0.00044619625668
  C   2.03229191085344      0.18708044834734     -0.00055188921078
  N   1.01515049615614     -0.65448172758788     -0.00096385828028
  C   -0.21474963200064     -0.12803130647889     -0.00055203849644
  C   -1.25147933861799     -1.10286973629226     -0.00088691083090
  C   -0.81155746692753     -2.46184456293805     -0.00140457959699
  N   -0.58213981837270     -3.59836937635373     -0.00175147194082
  C   -2.63309436379389     -0.96615278961817     -0.00076898293706
  H   -3.18742626402179     -1.89288410748453     -0.00111084843954
  C   3.40861187917178     -0.03504692317614     -0.00081087735696
  C   4.07984626068320     -1.26345717449375     -0.00173202312112
  N   4.65853817232103     -2.27135230763681     -0.00247499471260
  C   4.03002418475808      1.25855969955895      0.00006017648611
  C   3.08878129565962      2.27663508379111      0.00080528889929
  H   3.28337870234108      3.33549241030003      0.00155456182963
  H   5.10012457449854      1.39676806848424      0.00007859102491
  H   -1.54750217173458      3.06491533500074      0.00118436531375
  H   -3.73495829559817      2.27786723655528      0.00064902547768
