23
Coordinates from ORCA-job ./opt_b97-3c_parallel
  N   -5.53171500713780     -0.05115060105332      0.00258267730154
  C   -4.37169158067615     -0.01531800675743      0.00213886533352
  C   -2.95017159625522      0.02388718024552      0.00142411857246
  C   -2.30847085884103     -1.21943245448407      0.00104546341581
  N   -1.02040162704569     -1.52912980911072      0.00013773204610
  C   0.05435074140651     -0.75251939207199     -0.00046543149938
  C   1.27673204406615     -1.46288585097674     -0.00152572242523
  C   2.46082521194867     -0.78500721468180     -0.00209703462215
  C   2.41791450990690      0.70862512182187     -0.00147843618603
  C   3.72376677226960      1.15729778285588     -0.00206420221642
  C   4.56550990538578      0.00877008516126     -0.00301510253495
  C   3.81726983602398     -1.16277948464154     -0.00305008571051
  H   4.20121064342048     -2.16971637414563     -0.00367815096499
  H   5.64518728063666      0.04818909046851     -0.00362778722747
  H   4.04363257703836      2.18589386452964     -0.00183028687516
  N   1.28227471100524      1.40939595401703     -0.00054685715948
  C   0.12514627770969      0.75199334966849     -0.00007457979340
  C   -1.00704333357888      1.58355195635442      0.00057010397934
  C   -2.35139502083868      1.29233597018884      0.00118002626166
  H   -3.02644281483649      2.13641998187846      0.00154363668895
  H   -0.74395860665123      2.63368259639064      0.00056688424431
  H   1.21683148666239     -2.54269379768020     -0.00180111054985
  H   -2.96339562731929     -2.08354975777710      0.00144811412136
