27
Coordinates from ORCA-job ./opt_b97-3c_parallel
  N   -0.69666861369634     -3.59388141314516     -1.24399857232847
  C   -1.04398331208772     -2.58720862005451     -0.78078364682654
  C   -1.57581425691842     -1.35541553399787     -0.31605676649845
  C   -2.96211301926829     -1.36497800368910     -0.23152208053705
  N   -3.82916145715651     -0.44251943650371      0.16959020725630
  C   -3.58941299488426      0.84680005357275      0.27676880237367
  N   -4.59887838009118      1.59475733161958      0.77891564741735
  H   -5.40073882139522      1.10905504130385      1.14170238235860
  H   -4.45227579315615      2.54327641518779      1.06877463051706
  C   -2.43720459235131      1.55959277843554     -0.18464683223167
  C   -1.14626523950412      1.12233731065041     -0.32396026066885
  C   -0.18325073344360      2.15344006998339     -0.59555692937022
  C   1.13448829013027      1.90893269795626     -0.43103350316286
  N   2.18337890450715      2.80843108010698     -0.55601620423710
  C   3.24787554957737      2.12766843051525     -0.21137879765745
  C   2.96974784477143      0.74654202028594      0.16640016485989
  C   3.94418554237437     -0.16995062688018      0.57599382865113
  N   4.80750253908505     -0.87403694858840      0.90820345128170
  C   1.60174815787858      0.60169200585042      0.01280178013531
  C   0.67882153841334     -0.46135923986864      0.15844600210013
  C   1.15641011149781     -1.70819022500257      0.62927657283624
  N   1.57612728877348     -2.68017053093126      1.10393204130639
  C   -0.67753828146764     -0.25126075505432     -0.09793023982853
  H   4.23343324701215      2.57137592129546     -0.21311973706018
  H   -0.52567269063717      3.14984749285832     -0.83709995086038
  H   -2.59645781435083      2.61639801678350     -0.36443908528676
  H   -3.42859606532305     -2.31069831060067     -0.48166818283520
