27
Coordinates from ORCA-job ./opt_b97-3c_parallel
  N   4.67629844392251      2.24387282249625      0.46095928484567
  C   4.08968097164985      1.25178157643621      0.29060331397627
  C   3.33521707919316      0.09394224365278      0.09082970382559
  C   1.89559245015012      0.03266562472616      0.08345495999965
  C   1.51673511965234     -1.37121675008005     -0.16246520218818
  N   0.24545130576242     -1.79792110560593     -0.18513450659038
  C   -0.73460440626071     -0.92091617265766     -0.03982525735611
  N   -1.95784531360709     -1.47188449176482      0.06490387050583
  C   -3.15049707659377     -0.93696288820083      0.05826631979796
  N   -4.17572915539251     -1.84567709715539      0.20405849033421
  H   -5.03838320922277     -1.53412983241419      0.61369656718644
  H   -3.86993409175945     -2.76100794594144      0.48908506208625
  C   -3.56710170498370      0.40544109275887     -0.16223699873471
  C   -2.78199457886279      1.52764605011540     -0.17274448589207
  N   -3.35309850172084      2.75341568786286     -0.41585568200972
  H   -2.84470506613406      3.57465715388653     -0.14213634065202
  H   -4.34917257054726      2.83777120786859     -0.32035091308196
  C   -1.36773462181582      1.54864379890508      0.01914068622809
  C   -0.45067020476595      0.54093802537157      0.09070053277523
  C   0.91988266644611      0.95242440078687      0.21273032453294
  H   1.14356949427152      2.00289661795465      0.35639961908511
  H   -0.94693533279430      2.54776074920715      0.08088677903240
  H   -4.63071367781544      0.55133024261378     -0.31628816850151
  C   2.68575565164534     -2.09490965999279     -0.30561913848246
  C   3.78088010994942     -1.20064070061531     -0.15107059897682
  H   4.82113468205121     -1.48183577961929     -0.21123414227762
  H   2.75509448578250     -3.15313484739506     -0.49460018316806
