26
Coordinates from ORCA-job ./opt_b97-3c_parallel
  N   -1.36861564894130     -3.89381597189327      0.00714028286821
  C   -1.43098043596580     -2.73484593537729     -0.00104928309387
  C   -1.63556871552590     -1.32589784837441     -0.01199078726313
  C   -2.98426287854195     -0.95545463149231     -0.03222976555366
  N   -3.59963991204196      0.21156166814204     -0.03701116336477
  C   -3.00608613196187      1.40411430688646     -0.04235762212264
  N   -3.88239742793748      2.44864240854775     -0.08860867650942
  H   -4.84867209954518      2.22511348997196      0.07133536978202
  H   -3.57895265621737      3.37517173842522      0.14609296624068
  C   -1.63552867198689      1.73575997084916     -0.04028973863517
  C   -0.49227347846609      0.96103027672405     -0.01274280718641
  N   0.65591092068680      1.68906277872982     -0.00517275513428
  C   1.79009133296138      1.01715139183068      0.01681474840823
  C   1.81322766139063     -0.48377651922717      0.03246689619074
  N   0.68398036734024     -1.19752893572029      0.02312285534036
  C   -0.46012845768267     -0.52478872320795      0.00083642156170
  C   3.11851906862879     -0.88655507177491      0.05565301684907
  C   3.91703352915782      0.31606819686203      0.05439240420671
  N   5.25538680856971      0.30551288778704      0.07381051334806
  H   5.76736656634169     -0.55663520652408      0.08627955794431
  H   5.78327035541689      1.15840091891861      0.06881239142337
  C   3.10416368874228      1.46773978194377      0.03120285460401
  H   3.43917222176374      2.49166662830703      0.02559378953261
  H   3.49286836505370     -1.89718639812252      0.07135492624380
  H   -1.40747213352742      2.79504496132818     -0.06087647766189
  H   -3.67109381821195     -1.79505476553978     -0.03759808741869
