24
Coordinates from ORCA-job ./opt_b97-3c_parallel
  N   3.38856862892266      2.88190675577818     -0.00209898279190
  C   2.95199746123169      1.80741044869245     -0.00171597093332
  C   2.48101591557724      0.45832639458965     -0.00111736606897
  C   3.53852121154268     -0.46581573096804     -0.00092880196185
  C   3.49677338434448     -1.84152496239670     -0.00032332690204
  C   2.37864746646391     -2.66889613391070      0.00026222468743
  C   1.05249490807854     -2.30528837148644      0.00037808503960
  C   0.40831223651723     -1.05014884713954     -0.00003558523649
  N   -0.92616265513657     -1.17371375605153      0.00035477347895
  C   -1.65748392625476     -0.06875749750917      0.00004526862362
  C   -1.09070208942759      1.28408696114782     -0.00072207237439
  N   -2.06433842703430      2.23285935318732     -0.00091435620214
  C   -3.20880264252660      1.54294477877850     -0.00027155939348
  C   -3.04434286729765      0.12241124006514      0.00039700238424
  C   -4.05578482262706     -0.84324932799056      0.00133695516744
  N   -4.90815168259386     -1.63371027193164      0.00260218787546
  H   -4.16113496921553      2.05334293612739     -0.00023145941141
  C   0.26720361788100      1.42503597707430     -0.00110177801190
  C   1.08146250945439      0.27078849930374     -0.00075683064872
  H   0.70712932613493      2.41166648395617     -0.00163868693147
  H   0.33358699643486     -3.11422868198783      0.00088585098590
  H   2.57312974765770     -3.73324384922257      0.00069189233250
  H   4.45935395984238     -2.33742811896069     -0.00029336766068
  H   4.52459406853022     -0.02269169574521     -0.00130635964638
