27
Coordinates from ORCA-job ./opt_b97-3c_parallel
  N   -4.42713690883548     -1.85780819698128     -0.88179320442198
  C   -3.77559592512840     -0.95828670277625     -0.53573101609580
  C   -3.05933762744814      0.16423232635076     -0.10976255627403
  C   -3.70622448454785      1.38396281251832      0.41141226984017
  C   -2.77650490641209      2.30640894396319      0.74571678493069
  C   -1.48210946680331      1.73580982881384      0.44140307756469
  N   -0.33203044720251      2.32733887905106      0.49176742525460
  C   0.76545514606491      1.61595880594186      0.04331485737221
  N   1.76406563398011      2.38098189493441     -0.29419482583662
  C   2.95237557767584      2.00946326984417     -0.79456095166510
  C   3.65362949942942      0.85542660064520     -0.62481599772271
  C   3.21158530210160     -0.34072872508963      0.00127958986116
  N   4.16361906650398     -1.23652351771494      0.33366314580472
  H   3.92761118745794     -2.12099566531130      0.74975557266432
  H   5.13402422133467     -0.99478209837702      0.27572444411077
  C   1.85303806363399     -0.65914480018819      0.20077316847553
  C   1.64199632550215     -1.91298182853221      0.81686317853410
  N   1.61062577784052     -2.92532740402049      1.38874385157632
  C   0.70353271052579      0.14540828461815     -0.09522635176732
  C   -0.55519774352053     -0.43275569187876     -0.28376567270787
  C   -0.69013397731655     -1.78320413759704     -0.68165525432529
  N   -0.80724482501272     -2.86773449069267     -1.07781368721213
  C   -1.69858002342552      0.36203107618836     -0.06634330920167
  H   4.68118265824113      0.86488521929863     -0.96802896748751
  H   3.45836805406398      2.80938359508526     -1.32466162025242
  H   -2.93362874350870      3.30059825487570      1.12641576110623
  H   -4.77682846569437      1.48559485343200      0.49084127977684
