32
Coordinates from ORCA-job ./opt_b97-3c_parallel
  N   -4.79374900261752     -2.59338902849655     -0.96843960766868
  C   -4.09807363416708     -1.70290095502545     -0.68003684672637
  C   -3.30414544400734     -0.61636797461934     -0.32530416128407
  C   -3.78534967407724      0.64832522747330      0.07283324547763
  N   -5.07178272411558      1.00218526450980      0.14379593757447
  H   -5.34452402387385      1.92345789749838      0.42918129199187
  H   -5.79657083637470      0.35397371470322     -0.10988921284337
  C   -2.67865026710608      1.50960732121545      0.40122307011095
  C   -1.52610293358875      0.79953210900703      0.19816204993197
  C   -1.88278022535553     -0.55263957000389     -0.24958036894329
  C   -0.90950117863164     -1.48196676212146     -0.42139026995703
  C   0.46352516192355     -1.16565341964075     -0.18379872894874
  C   1.31531236519358     -2.23302598526659     -0.06791197235935
  C   2.67927941055896     -2.25113645670891      0.34408853911600
  N   3.57819153986190     -1.30156965988362      0.25983574233605
  C   3.38806179320864     -0.05892893990019     -0.20206979104345
  N   4.53433619056505      0.52881083401165     -0.61422609850020
  H   5.39026715141380      0.04372772950411     -0.41920771515042
  H   4.57287040633767      1.51105136251472     -0.82136430757990
  C   2.18281574341446      0.69281004337906     -0.23855243104627
  C   2.35970517870295      2.02497754289881     -0.67071366058980
  N   2.62780736999989      3.06932445572675     -1.10952647895857
  C   0.85461276658776      0.24218311408256      0.02590405392201
  C   -0.15941243520643      1.15644570644288      0.32679141885887
  C   0.10441132593487      2.45762330803494      0.80973877269541
  N   0.20947526982982      3.51098084485669      1.28866444957338
  N   3.14054496814889     -3.44831430235164      0.80607969729307
  H   4.06572093426470     -3.44724498339526      1.19908990946244
  H   2.49317374240245     -4.11551626773381      1.18352482887534
  H   0.86889426566493     -3.21028357170267     -0.20659298949224
  H   -1.16536677084012     -2.50837578924826     -0.64861949613887
  H   -2.75843516485186      2.53178822833891      0.73433789681209
