32
Coordinates from ORCA-job ./opt_b97-3c_parallel
  N   -5.04167826995631     -1.44066359537520     -1.59632382088959
  C   -4.13813373965269     -0.87280447034463     -1.13544756620522
  C   -3.03120732115718     -0.19176748434433     -0.56901061369334
  C   -3.15476702147521      1.18015103042431     -0.40832193377003
  N   -2.35966660969795      2.03795505341174      0.21368744087945
  C   -1.08943194262830      1.85422380881531      0.54101862402970
  N   -0.60651763100660      2.77568621619176      1.39468096953629
  H   0.39063247292132      2.85148027768977      1.52850755985327
  H   -1.18933397989177      3.57157285933827      1.58906543591884
  C   -0.17250768246659      0.80763652572319      0.10462923467442
  C   1.17741571860836      1.06209638208728     -0.07705698223839
  N   1.70879118600703      2.35439155410728     -0.07568765086478
  H   1.20815034116984      3.02267918140604     -0.63955482455309
  H   2.70346111193635      2.35970283871842     -0.26891084075111
  C   2.08131456772191     -0.02543831395989     -0.14295704238388
  C   1.65709722628542     -1.35272703192491      0.25274274160279
  C   2.82204537597494     -2.16729953782637      0.33967560764193
  C   3.90369596082186     -1.39108000110832     -0.02748845806826
  C   3.45949477461001     -0.07044749306585     -0.33152441680168
  N   4.26483226920431      1.02399814759545     -0.73798408177070
  H   5.23847771723606      0.86322144400339     -0.52287652124024
  H   4.19813860721191      1.18584469638951     -1.73539140776858
  H   4.92954102964001     -1.72473511464803     -0.09310312543988
  H   2.86395739784782     -3.21652512596517      0.58841885140227
  C   0.31824985596217     -1.62949618293965      0.43196712309566
  N   -0.12292000520194     -2.89089825194096      0.73541420628304
  H   -0.93175503288608     -2.96513847108619      1.32666376889474
  H   0.58779662958752     -3.56707784280811      0.95043449340429
  C   -0.64844989092690     -0.58122939691008      0.14573863766998
  C   -1.91864897545207     -0.98152071476494     -0.18005625670565
  H   -2.08593690136981     -2.04770497408125     -0.24345461324643
  H   -4.07246406777641      1.62486987908952     -0.78017687989900
