23
Coordinates from ORCA-job ./opt_b97-3c_parallel
  N   -1.90751654721108     -3.39182510296444      0.00055777626148
  C   -1.75032993693190     -2.24277054286758      0.00072893920852
  C   -1.73111638504783     -0.81301771385592      0.00094878418581
  C   -3.00228925864662     -0.23469499513594      0.00127455910350
  C   -3.35036894272057      1.10531539844460      0.00157122393780
  C   -2.51913121740648      2.21206444916098      0.00158515233831
  C   -1.13403825601464      2.24548193656671      0.00127982999124
  C   -0.17335808303114      1.23155986364279      0.00094083826001
  N   1.09507184720689      1.70491739427390      0.00073672876385
  C   2.06953757794869      0.81865272927053      0.00043007044178
  C   1.79065448950197     -0.65949529592332      0.00032900116175
  N   0.55473130388482     -1.12438583005379      0.00052915834483
  C   -0.44313721221087     -0.22552785598899      0.00081608253769
  C   3.01465871790277     -1.31432091050045      0.00000083764713
  C   4.00753718494847     -0.31317125533557     -0.00009581966443
  C   3.45288189011592      0.97885149081482      0.00015582239650
  H   3.99065029563271      1.91202027850875      0.00017915656201
  H   5.06902939110127     -0.51579142220165     -0.00036513943669
  H   3.17256534120977     -2.37961839227136     -0.00010522309686
  H   -0.67965193377835      3.22849168587450      0.00131975766824
  H   -3.00894440668124      3.17696647768671      0.00184692138779
  H   -4.41440133116733      1.30774291483658      0.00182824832240
  H   -3.82219534420484     -0.93887648508187      0.00130276107700
