28
Coordinates from ORCA-job ./opt_b97-3c_parallel
  N   -1.56974489423877     -3.88807898485111      1.27037336282111
  C   -1.65678354241556     -2.84369084894440      0.77195967589062
  C   -1.89160370293106     -1.52012898255372      0.29613065030090
  C   -3.24320799342769     -1.17927590109190      0.35804303329030
  C   -3.85442198197587      0.00392604694913      0.00000731673052
  C   -3.24078468231626      1.18593079629175     -0.35779815616967
  C   -1.88851912933234      1.52414466982098     -0.29553964101521
  C   -1.65106678742181      2.84727265752756     -0.77124196615429
  N   -1.56214562281251      3.89150865745716     -1.26965001964895
  C   -0.75388038737106      0.73600807939559      0.05813853151553
  C   0.46107185434082      1.39256252249058      0.36592949021233
  C   0.51288329425363      2.72463055710551      0.83721673359480
  N   0.60611668172514      3.77571021640754      1.31986707547662
  C   1.66435900363403      0.69238641348887      0.23864735093835
  C   1.66296333897571     -0.69547524140322     -0.23802856656324
  N   2.91425038002200     -1.10519100083665     -0.39585178958171
  C   3.62665589608074     -0.00343916991614      0.00006952460330
  N   2.91648622716376      1.09967026793182      0.39617738875018
  N   4.94960119099085     -0.00470292105438     -0.00016306703745
  H   5.45145694590122      0.81084807692178      0.30244466431691
  H   5.44979250584867     -0.82118881766481     -0.30300432423621
  C   0.45826000760527     -1.39323810320130     -0.36524296652774
  C   0.50730504809537     -2.72535624620869     -0.83671951923951
  N   0.59830224349177     -3.77651078286437     -1.31962281207053
  C   -0.75535463473874     -0.73423654348660     -0.05743920215441
  H   -3.89289571134435      1.98445141858304     -0.68307723354236
  H   -4.93624107158282      0.00498318821989     -0.00016589480387
  H   -3.89697278752133     -1.97650547631287      0.68318175590325
