25
Coordinates from ORCA-job ./opt_b97-3c_parallel
  N   -3.69020196724473     -2.83812169453711     -0.00579812730239
  C   -3.15180227469791     -1.81087476267756     -0.00375705005498
  C   -2.67292369698559     -0.46556056333617     -0.00117038665333
  C   -3.69574179750039      0.49011746576491     -0.00096580355027
  C   -3.59632593143437      1.86397824647481      0.00109829543762
  C   -2.44464506978647      2.64163334039915      0.00235010639875
  C   -1.12957362945584      2.22925039907306      0.00133118477351
  C   -0.54049469824236      0.95593996477623     -0.00006655468444
  C   -1.26333139541839     -0.32280532569055      0.00009952075823
  N   -0.63722781500520     -1.51563550930352      0.00137613750607
  C   0.67343567000507     -1.54038306787392      0.00168696115335
  N   1.42774182274157     -2.66497304044906      0.00372336932129
  C   2.68830132675044     -2.23005163592021      0.00222826374219
  C   2.82685158401442     -0.80480721147661     -0.00101843750666
  C   4.03418788138802     -0.09594554349802     -0.00348202808436
  N   5.05535948175166      0.45871778211490     -0.00601915787729
  C   1.51677474992511     -0.32866722738860     -0.00059906850004
  C   0.88181207939926      0.90437263454601     -0.00152335655717
  C   1.64401357266326      2.09900042830768     -0.00377476006808
  N   2.25733440134727      3.08373388450181     -0.00605346605824
  H   3.51413544531370     -2.92661562467992      0.00327677938315
  H   -0.41560355578531      3.04326830709689      0.00193533602022
  H   -2.59480247255345      3.71297645285336      0.00384854973231
  H   -4.53542630824061      2.40281324245289      0.00156874058945
  H   -4.69645533814917      0.08198105116949     -0.00221251871894
