26
Coordinates from ORCA-job ./opt_b97-3c_parallel
  N   5.21063306414147      1.08363662104014     -0.00181458403179
  C   4.05303326495097      0.97994734400147     -0.00160323337749
  C   2.64895025512246      0.79450079223738     -0.00105028337464
  C   1.88442646476930      1.97139859598332     -0.00345909938775
  C   0.52802715131976      2.15530850926003     -0.00369121839760
  C   -0.53536752260979      1.23625176931502     -0.00158431070989
  N   -1.74881630048078      1.79720080984864     -0.00255900442660
  C   -2.80277104162754      0.98603485383398     -0.00082166637573
  C   -2.63058239723552     -0.50648530807317      0.00205533239573
  N   -1.44680963507159     -1.06286571862545      0.00307213107189
  C   -0.36458765503900     -0.23341399375296      0.00135464858228
  C   0.83385982811845     -0.95466039660876      0.00291303719977
  C   0.65697491965469     -2.37074733087600      0.00604965121464
  N   0.73478045494253     -3.52974733736188      0.00898473050678
  C   2.21175000417051     -0.54845659578489      0.00190891400704
  N   3.14410247486654     -1.52422299401196      0.00384727764006
  H   4.12274282524930     -1.29997735564985      0.00365563875196
  H   2.88136389830967     -2.49369880828145      0.00627666654629
  C   -3.91558074677613     -1.08724052629549      0.00332455621018
  C   -4.81517219938850     -0.03371735082163      0.00139137916727
  C   -4.15334383211696      1.23881318055289     -0.00114557624539
  H   -4.63111663822546      2.20413547020193     -0.00293133716757
  H   -5.88965360856416     -0.14863987062073      0.00174477204943
  H   -4.13867330214525     -2.14032276542047      0.00535758422016
  H   0.18494227927327      3.18142796543894     -0.00581685933888
  H   2.47315799799158      2.87829812377129     -0.00546358212962
