22
Coordinates from ORCA-job ./opt_b97-3c_parallel
  N   -1.92504790051277     -3.40400544240326     -0.10007064393239
  C   -1.76882603624506     -2.25539561977688     -0.06145339164149
  C   -1.73592610948902     -0.82869098926732     -0.02362568810463
  C   -2.99066599293269     -0.22275162972396     -0.08795028494794
  C   -3.28200827710130      1.12575377820767     -0.00507865849858
  C   -2.39380204646206      2.18652767451302      0.11734183868502
  N   -1.07162530881196      2.22152292608575      0.06596347012024
  C   -0.18816907519547      1.23704921657034      0.00334910963701
  N   1.08467786286472      1.69135846269139     -0.09959025653833
  C   2.04850912754062      0.80164057833358     -0.07688241159864
  C   1.78215458977757     -0.67110623266513      0.09071316142220
  N   0.54239448507173     -1.13694659610242      0.13842100371859
  C   -0.44910402857190     -0.24574857784829      0.07102985289968
  C   3.00276884310420     -1.31058706246100      0.13785118437475
  C   3.99747131777384     -0.30367480515406     -0.00758516121223
  C   3.43860167400986      0.96809370957177     -0.14017015104617
  H   3.96402656118300      1.90045163771878     -0.25786782175369
  H   5.05912556267024     -0.50499154518668     -0.01265600433214
  H   3.17356512267545     -2.36746400982251      0.25514212836773
  H   -2.84372482235310      3.16855186468845      0.22639614213311
  H   -4.33135345305295      1.39381334416065     -0.02651779890520
  H   -3.82924127334303     -0.89787626912974     -0.18375005124646
