26
Coordinates from ORCA-job ./opt_b97-3c_parallel
  N   5.56147194791391      1.08647013243136     -0.00088384362179
  C   4.40435691720481      0.97937595590812     -0.00050120432547
  C   3.00037424820395      0.79044414978629      0.00012515241966
  C   2.23245883955087      1.94883954222458      0.00121179538636
  C   0.86845989524716      2.13211011918492      0.00236315685490
  C   -0.18997895517102      1.21992426459864      0.00249868225350
  N   -1.40584836530930      1.80473910126559      0.00432360476075
  C   -2.44123363793430      0.98634939631963      0.00337746550095
  N   -3.73575967167652      1.28692305306931      0.00469271665767
  C   -4.30369540277059      0.04052568084760      0.00219656396256
  N   -5.62108835878073     -0.10087327545385      0.00253910238676
  H   -6.21063486513606      0.71156111983704      0.00451371608623
  H   -6.02393349002224     -1.02040851546378      0.00054486005705
  N   -3.48551628920520     -1.05807557409730     -0.00063525000608
  C   -2.28515619112112     -0.49172078468721      0.00012190059001
  N   -1.09979498297614     -1.07258343145716     -0.00144083305697
  C   -0.03235952975192     -0.25257756397125     -0.00013003400335
  C   1.18920009534469     -0.96808479397452     -0.00042618878597
  C   1.02124073822252     -2.38220578595921     -0.00169931149439
  N   1.10333394824975     -3.54123761954814     -0.00268841918653
  C   2.55358044984943     -0.56182803300190     -0.00016709356911
  N   3.49684497574830     -1.52271210663295     -0.00029014441993
  H   3.24350331121967     -2.49550671925805     -0.00141281201938
  H   4.47307307200559     -1.28747481781194     -0.00086486996181
  H   0.52886239151727      3.15884364028200      0.00360253972587
  H   2.81185400077711      2.86248097486351      0.00130412630758
