32
Coordinates from ORCA-job ./opt_b97-3c_parallel
  N   4.70206567310388      2.26217428518949      1.19666522447345
  C   3.97589019463201      1.42479947643946      0.83965472742411
  C   3.21181537138992      0.34593445785027      0.39831694294057
  C   1.82344109232225      0.22757707277471      0.22457186904316
  N   0.88917292181337      1.13505886187783      0.37528530657456
  C   -0.39350291984841      0.79684933818893      0.10854442650735
  C   -1.23296988289400      1.89664535746443     -0.06055745822496
  C   -0.63856661437949      3.17960655545745      0.01314136498919
  N   -0.30588176057521      4.29332348436041      0.01347591350519
  C   -2.62563498267932      1.88256822943048     -0.44193403581047
  N   -3.50996748521091      0.94690087008688     -0.18369561538958
  C   -3.30673308940474     -0.27370506144843      0.29935153946363
  N   -4.40291330975410     -0.82927663696334      0.85283809301580
  H   -4.42282970976331     -1.79623270592527      1.12468417949073
  H   -5.27139947305949     -0.33587518183579      0.75750975685751
  C   -2.11546521464323     -1.06082535258523      0.20978315603829
  C   -2.29823702995572     -2.41268763527237      0.57420844161666
  N   -2.56606320631915     -3.47223828151085      0.97384386768265
  C   -0.81070675043599     -0.60802163034442     -0.09139131661505
  C   0.20721973866679     -1.52009797400710     -0.43466257553403
  C   -0.05010205693473     -2.81594929484532     -0.93333459869385
  N   -0.14992954778648     -3.86324217117436     -1.42577946580065
  C   1.55072836480442     -1.13888528460018     -0.29434388729239
  C   2.74282129647544     -1.78891071938761     -0.47157797110348
  C   3.77439177078701     -0.89387193859854     -0.03636215790603
  N   5.07437665066583     -1.16140441043671     -0.02949930562160
  H   5.43072613616271     -2.04122203972625     -0.35539819260803
  H   5.73561262807493     -0.47431888758268      0.29355356619793
  H   2.89184953390791     -2.79435935721168     -0.82942843734861
  N   -3.10432352380755      2.97289049626253     -1.07054439344302
  H   -2.54229740493136      3.79771047808852     -1.18369788175512
  H   -4.09892278742326      3.04962326898452     -1.18371021127462
