30
Coordinates from ORCA-job ./opt_b97-3c_parallel
  N   -6.02682432148582     -0.27188402939439      0.59960381006902
  C   -4.88257418284261     -0.24104582286831      0.38755453451247
  C   -3.50260690462046     -0.17091532985504      0.12577654369503
  C   -2.84897600721374     -1.36331655502234     -0.36322947880679
  N   -1.57775637698410     -1.66360806327507     -0.31259364110757
  C   -0.48493689662706     -0.93632350835665     -0.08034422775683
  N   0.61555772341148     -1.64386010852035      0.15067805523999
  C   1.78743556450298     -1.02042961231572      0.16763625382197
  C   3.05521951271295     -1.55820855856840      0.39265406752297
  C   3.35973234024893     -2.88410360953834      0.72098904283645
  N   3.63378633250438     -3.97997938525641      0.99511231010864
  C   4.01269523299919     -0.50732246557307      0.20454314518503
  C   3.38463802400224      0.68001626992642     -0.13107089757795
  C   4.01288183327930      1.90734167119148     -0.38094410177539
  N   4.54167385276524      2.92142740692263     -0.58802102497759
  C   1.97311975193539      0.41038616209816     -0.14918071932037
  C   0.86052094770381      1.17552442784866     -0.32895021895734
  C   0.92268135602460      2.56901604587665     -0.56682409380587
  N   0.88776352714496      3.71357934726979     -0.75542781471765
  C   -0.44649453802744      0.54292970045983     -0.17528762764224
  C   -1.52128641721667      1.36138342953585     -0.01791743999738
  C   -2.89173141172371      1.07453632359649      0.27072095892752
  N   -3.62240823184032      2.13678759095338      0.66332994440517
  H   -3.19493730426171      3.03187223492751      0.80840535056091
  H   -4.60088207321396      2.05144960557389      0.87687577119254
  H   -1.30631946559839      2.42275043018785     -0.05477158906301
  H   5.07805404177160     -0.63193545428930      0.31066307354230
  N   -3.64505473890449     -2.33014872377982     -0.86775461569684
  H   -4.64587283649734     -2.25560086844413     -0.86823437479788
  H   -3.22896469224914     -3.22968159301125     -1.03194655801934
