27
Coordinates from ORCA-job ./opt_b97-3c_parallel
  N   -1.68516283287346     -4.11419056982743      0.00101439107642
  C   -1.74782951253850     -2.95519798635492      0.00068105535634
  C   -1.87532377382266     -1.53359471185199      0.00023085381456
  C   -3.20879539700006     -1.12392814799981     -0.00202833817508
  C   -3.73437549317836      0.15580081371055     -0.00304354645992
  C   -3.05840324962683      1.35762563689024     -0.00204040296159
  C   -1.68146882438554      1.59186996366627      0.00020827658639
  C   -1.33740950345942      2.97804857132607      0.00068816812159
  N   -1.20591511808086      4.13109889526226      0.00087126742257
  C   -0.57795265802710      0.69878802290052      0.00205365667665
  N   0.59202700692335      1.33824420912032      0.00387707193342
  C   1.72507435136701      0.64378196165276      0.00578829333057
  C   1.75290044509421     -0.84259608865574      0.00606889237295
  C   3.07478881446016     -1.24064802742023      0.00841383261537
  C   3.86222683635866     -0.05201462313975      0.00964553032305
  N   5.20231720055450     -0.02334589471035      0.01059975167284
  H   5.74128671499624     -0.86893093148012      0.01890270717894
  H   5.70375516364909      0.84497121109526      0.01848439077694
  C   3.02637394682466      1.10138297662277      0.00788857714548
  H   3.34927425066013      2.12908483337719      0.00808640134081
  H   3.45769296332201     -2.24876974276418      0.00903589622435
  C   0.53849838849997     -1.50023313520950      0.00421226499406
  C   -0.66287041050204     -0.78855216294192      0.00209931196792
  H   0.51432705746668     -2.58046782637000      0.00434163221930
  H   -3.67030921296302      2.24888937801621     -0.00312646562502
  H   -4.81470894924905      0.22021658969839     -0.00483834741904
  H   -3.93106915366975     -1.92870401271286     -0.00311622570984
