26
Coordinates from ORCA-job ./opt_b97-3c_parallel
  N   1.53611223245689      4.33598914199245      0.06142783541175
  C   1.58623761825920      3.17693751435437      0.06238427407119
  C   1.83678840226053      1.77214714589005      0.09007762831591
  C   3.17298654218123      1.44538016959608      0.31707859332675
  C   3.77480701585874      0.20617182903186      0.27991316332344
  C   3.18167739585725     -1.00936417621667     -0.00576074337922
  C   1.83249947356407     -1.32909543453941     -0.14249848543039
  C   1.65001898649469     -2.66642648439353     -0.60275500607576
  N   1.62204658119516     -3.72201944488431     -1.08426821582129
  C   0.67176172152193     -0.52194525856957      0.05568560259627
  C   0.68465484590533      0.94931802590312     -0.05833638965607
  N   -0.42594128133216      1.67655942520895     -0.24541215876701
  C   -1.59101089182242      1.05701187064128     -0.20684031185104
  C   -1.73595258572599     -0.37611150922379      0.10954309702891
  N   -3.01823172997862     -0.68346585448891      0.19567428533368
  C   -3.61172657713495      0.52608054052641     -0.10012988489603
  N   -4.93036202766458      0.63129772207352     -0.14318867466579
  H   -5.35647818383271      1.51409860537476     -0.36048491637694
  H   -5.50138510688639     -0.17278813157179      0.04605413565493
  N   -2.80188000523209      1.59440040745360     -0.34075737992980
  C   -0.58128898902986     -1.15046152290598      0.24847985473164
  C   -0.73083008948949     -2.49666897889955      0.65591099356375
  N   -0.92837984366977     -3.55804068722313      1.08095300361493
  H   3.85720293285001     -1.84266472377051     -0.14268180689464
  H   4.84627344288476      0.18924046870082      0.42808861539852
  H   3.82432232330940      2.28975912993930      0.49515098657247
