25
Coordinates from ORCA-job ./opt_b97-3c_parallel
  N   -5.19673357991615     -1.15436918979287      0.00172103807523
  C   -4.04280666850115     -1.02341739089821      0.00122426204431
  C   -2.64010492334957     -0.80851528463985      0.00084094933201
  C   -1.86218821889187     -1.95204077336997     -0.00004221081992
  C   -0.48564185128529     -2.11155432261904     -0.00059684825772
  C   0.54393383338433     -1.18246643600707     -0.00037765281720
  N   1.77822585508994     -1.75168979935830     -0.00110791358204
  C   2.79956816457890     -0.93219000419226     -0.00083567976912
  C   2.62453230607888      0.55596648390157      0.00021259584868
  C   3.90362721361308      1.06804864919130      0.00020926312883
  C   4.73925018220511     -0.07761557342156     -0.00079607914880
  N   4.10345022089463     -1.26952326652646     -0.00143789951986
  H   5.82111246211988     -0.05827740663700     -0.00108174868339
  H   4.20962104532545      2.10007775786636      0.00082336683691
  N   1.41895113480318      1.11380148089397      0.00086904719140
  C   0.36678270222870      0.28798645195594      0.00060211235622
  C   -0.87034607840483      0.98661573441405      0.00128200977469
  C   -0.72182881216573      2.40253637206990      0.00202000725118
  N   -0.81791148396623      3.56053109067571      0.00268926139902
  C   -2.22144212867249      0.55987964312768      0.00139283311170
  N   -3.19074592212553      1.49744625618225      0.00211074179689
  H   -4.16115950597873      1.24074281538210      0.00225995376789
  H   -2.96171682527590      2.47599717025296      0.00260161051963
  H   -0.12834561946089     -3.13246819066501     -0.00131268378104
  H   -2.42554924912854     -2.87521900238545     -0.00034800435592
