24
Coordinates from ORCA-job ./opt_b97-3c_parallel
  N   5.81536219686466      0.69555469133724      0.00033209612946
  C   4.65752738628324      0.62182772399544      0.00023168253807
  C   3.23705464271024      0.54292211132198      0.00005017278570
  C   2.54273884377599      1.75773043995427     -0.00015335188290
  C   1.18689019325110      1.97333543580231     -0.00034850983640
  C   0.08065134711526      1.10199708338715     -0.00041267883655
  N   -1.09719238724411      1.75540423100902     -0.00061268144390
  C   -2.17944933901373      0.99570229695499     -0.00071147854305
  N   -3.45299081683187      1.37083590624038     -0.00090290064621
  C   -4.09364646320578      0.16016731090552     -0.00093757757596
  N   -5.41589621373837      0.09238253001341     -0.00108434881608
  H   -5.96020428211084      0.93600512624628     -0.00138392354557
  H   -5.86979866012165     -0.80325846513569     -0.00129072612726
  N   -3.33628634049397     -0.98348654960850     -0.00077702630298
  C   -2.10825264410962     -0.48599547963584     -0.00062442703303
  N   -0.95437517975512     -1.13537514349710     -0.00041362266011
  C   0.14737100541848     -0.37442267113848     -0.00029630786982
  C   1.35529684767664     -1.13114219375230     -0.00004452825908
  C   1.18168702786677     -2.54909102721004      0.00009143060045
  N   1.17191628213939     -3.70867881842432      0.00037376518347
  C   2.68845733817289     -0.73706296413276      0.00009560021920
  H   3.40129100736808     -1.54914639056232      0.00026946019499
  H   0.87542149413074      3.00960937664551     -0.00048137939073
  H   3.15812914425158      2.64698103198374     -0.00015491618207
