29
Coordinates from ORCA-job ./opt_b97-3c_parallel
  N   -2.35455677891690     -4.24603304399500      0.00650102552293
  C   -2.27684885111615     -3.08716789331491      0.00531121260671
  C   -2.20090380934833     -1.66852748762344      0.00417219280645
  C   -3.45762827482957     -1.05826064229713      0.01477676500270
  N   -3.84705394476248      0.19897336587974      0.01465748381570
  C   -3.07762698196174      1.28357559706718      0.00643667691851
  N   -3.77469638220773      2.43547833307560      0.00405813233930
  H   -3.33303563162502      3.33735857692501      0.00107261878749
  H   -4.77604619439876      2.36829272142937      0.01112627529189
  C   -1.64077492872885      1.37496162300699      0.00129673133528
  C   -1.14045636320684      2.70504188177843      0.00002928938069
  N   -0.93840289661898      3.84960246127854     -0.00046654244008
  C   -0.65943102755227      0.37282626787259     -0.00431136991942
  N   0.58622474349307      0.88930212983016     -0.00943216290544
  C   1.61973401753811      0.07572325493777     -0.01860019443338
  C   1.49036385602266     -1.40289210779500     -0.02392756044972
  C   2.75353093740859     -1.95175854981361     -0.03407821289138
  C   3.68133289418807     -0.86828338859314     -0.03516428770227
  N   5.00673001960708     -0.97247870441264     -0.04364563017861
  H   5.58309393054576     -0.14721871996351     -0.04369601323644
  H   5.46389003205001     -1.86556930148075     -0.05028964204726
  C   2.98517425840438      0.38535989427053     -0.02559215842220
  C   3.63299426178020      1.61971788156437     -0.02448069900416
  N   4.27143290675331      2.59352227446778     -0.02446139832873
  H   3.01431011118359     -2.99769184410416     -0.03990362343754
  C   0.20684322306409     -1.92745315796810     -0.01705067110855
  C   -0.89971545428739     -1.08910179984859     -0.00642386984446
  H   0.06248654014783     -2.99811815744956     -0.01909387647418
  H   -4.28900421272578     -1.75529649342467      0.02394564111610
