26
Coordinates from ORCA-job ./opt_b97-3c_parallel
  N   2.52675754554821      3.62219077213400      0.00038732788318
  C   2.33999096615053      2.47696938400764      0.00030167620494
  C   2.26751018680717      1.05307745651298      0.00007933702150
  C   3.51092942464323      0.41164180098322     -0.00133595845605
  C   3.77781632800443     -0.93916984284399     -0.00207540794657
  C   2.85963687169576     -1.98917549401016     -0.00156351596673
  N   1.54375158630781     -1.98441086340783     -0.00038089679571
  C   0.68213331907480     -0.96570178072968      0.00069008859001
  C   -0.67363415010305     -1.36158250601729      0.00148768537277
  C   -1.01341555655017     -2.73643494579956      0.00112654824208
  N   -1.40839585706931     -3.82763404125249      0.00096208782815
  C   -1.68856449717249     -0.40619509418888      0.00238926965929
  C   -1.27696668596596      1.02748599697609      0.00263388867999
  N   -0.00634934143101      1.42028701532018      0.00194272588845
  C   0.96088418026078      0.50446878301510      0.00095910751589
  C   -2.41961537291538      1.79817428610089      0.00357130683777
  C   -3.52109762224200      0.89408776257304      0.00383205994546
  N   -4.80760171688364      1.25651729106179      0.00464010670441
  H   -5.54074672907936      0.57151984441552      0.00452684002590
  H   -5.07728985272708      2.22278474537020      0.00487732074919
  C   -3.06105530090335     -0.45903802713324      0.00311324938991
  H   -3.68095931496785     -1.34064964245585      0.00312139776415
  H   -2.46969672464769      2.87397847208653      0.00393827970718
  H   3.28534843787602     -2.98841228071121     -0.00228752025333
  H   4.82154441161881     -1.22762429757190     -0.00318272377070
  H   4.36618312607084      1.07337718066488     -0.00194707572113
