29
Coordinates from ORCA-job ./opt_b97-3c_parallel
  N   -3.58594535447787     -2.02843428636638      1.57829260135102
  C   -3.16190128079972     -1.16468022227960      0.92973896572492
  C   -2.73152126678294      0.01998894292872      0.26199081424361
  C   -3.77110278113678      0.91231324611873      0.06056405449905
  C   -3.72786573498491      2.21634127335177     -0.43103524312696
  C   -2.61500626728214      2.99917848588756     -0.60595886868953
  C   -1.28784223126212      2.66990016418372     -0.32915370625932
  C   -0.66970841388192      1.45695019120373     -0.05580641551186
  C   0.76233716310232      1.50263884230762      0.10336529336416
  C   1.40458303952703      2.76281700059862      0.20172711021268
  N   1.88984919723913      3.81301520309458      0.28612440328524
  C   1.50749537731558      0.34571487270247      0.10343041891055
  C   0.85128420972333     -0.94341533332272     -0.11159904010628
  C   1.85467757883338     -1.91691269384085     -0.18219793960431
  C   1.73022244890458     -3.30207627529879     -0.36701365241531
  N   1.69504326342777     -4.45376835859473     -0.51324625761187
  C   3.10312937848216     -1.26124830226957      0.01081723013291
  C   2.91188486165950      0.10590340279404      0.18467074346992
  C   3.93609064203177      1.04221153925547      0.39242134401246
  N   4.80952809255179      1.78741811239579      0.56702945300445
  H   4.05804213661401     -1.76026714292551      0.02239407106928
  C   -0.54617099452226     -1.01099560178290     -0.16710350594632
  C   -1.15065894279861     -2.25625456323321     -0.47389014773141
  N   -1.61666049229427     -3.25623790238924     -0.83192376445140
  C   -1.32998464837045      0.15032861142178     -0.03036884904870
  H   -0.61199859184560      3.51238186629030     -0.38770332762132
  H   -2.78155688497920      4.01813103447176     -0.92892252211093
  H   -4.68744916198050      2.67914478397821     -0.62324965550242
  H   -4.75170647351293      0.53668090162019      0.31767120805886
