28
Coordinates from ORCA-job ./opt_b97-3c_parallel
  N   -6.05342445084752     -0.63957609159492     -0.00239112607330
  C   -4.89170858138869     -0.65959351603010     -0.00150639209437
  C   -3.47497888601205     -0.62664272684871     -0.00032677986740
  C   -2.84233067690880     -1.85995733731067      0.00103855941506
  C   -1.50299442625979     -2.19391039405621      0.00237172073336
  C   -0.35721594995463     -1.40173133585639      0.00275014018570
  N   0.79274293697016     -2.11757437774540      0.00408122199382
  C   1.91623542035936     -1.43544994316077      0.00460365372913
  C   1.92295166864176      0.04773891914365      0.00382514705931
  C   3.26165258932836      0.40880225358764      0.00478355261202
  C   3.88517329898957      1.65526032949619      0.00469195792401
  N   4.48962190096658      2.65008055055731      0.00468232614808
  C   3.96355240631637     -0.86192293676876      0.00602232191280
  N   5.28216616186192     -0.98700906016579      0.00717366033394
  H   5.69045654794953     -1.90549319587012      0.00808871200539
  H   5.88143537542731     -0.18008237658021      0.00737635172464
  N   3.15588882313287     -1.94545173922051      0.00589739589250
  N   0.80675284707399      0.75670416078727      0.00249378650618
  C   -0.34846660237446      0.07380038954196      0.00189377502058
  C   -1.48371439752155      0.92602005462789      0.00032764219719
  C   -1.15959923980977      2.31130740229993     -0.00031214806657
  N   -1.10268003650645      3.47181695689632     -0.00091116768089
  C   -2.88059515021402      0.67283107546253     -0.00070773272652
  N   -3.71700449604997      1.72764070691557     -0.00216085268994
  H   -4.71283380535654      1.59825121289476     -0.00290323652968
  H   -3.36214233170605      2.66829033395126     -0.00244975074262
  H   -1.27882965716208     -3.25179118655100      0.00324287101154
  H   -3.51841975564470     -2.70449969830250      0.00104201926627
