29
Coordinates from ORCA-job ./opt_b97-3c_parallel
  N   -2.14879131907220     -3.11883788920860     -1.17335628715469
  C   -2.17123409851920     -2.07910659054302     -0.65765326733874
  C   -2.36907209722747     -0.75750186734041     -0.15757655681689
  C   -3.73385811897640     -0.48157036108798      0.00430923945164
  C   -4.36761682273648      0.70477278363915      0.31036250367658
  C   -3.79802298200220      1.96558484773421      0.38627728998518
  C   -2.47820275856754      2.31078984190375      0.17917937106110
  C   -1.31300460674837      1.54887011672020     -0.00524211235612
  C   -0.13732766835282      2.29251032138739     -0.16634278561048
  C   1.10965857611841      1.70630772758978     -0.19278257843329
  C   1.21519773553712      0.25586008127245      0.02100625724385
  C   2.57071790157686     -0.06098375487474      0.05714359195416
  C   3.24338238421033     -1.27466697343921      0.21188555837503
  N   3.94356258029150     -2.19872761127680      0.31962809107320
  C   3.29860936899845      1.17250526838355     -0.16075930024524
  N   4.63287372118533      1.22460550551855     -0.20185093531312
  H   5.11904328260453      2.08174623669367     -0.38519140272041
  H   5.17791580415942      0.38596891550171     -0.09531388756495
  C   2.39289837703415      2.23606432943363     -0.30620014935555
  H   2.65038041330166      3.27113440579485     -0.46017542769309
  C   0.05117259093101     -0.51311276763201      0.14681224662925
  C   0.21200840643818     -1.86903206001596      0.52561262307010
  N   0.40948107947255     -2.93488465096094      0.94049863939633
  C   -1.23095411793280      0.07425059624738      0.02655289342773
  H   -0.21835058327475      3.36989171418357     -0.22267996902139
  H   -2.29043347461739      3.37794442886715      0.19682858877209
  H   -4.47368196174059      2.78854121567431      0.58123311056305
  H   -5.43971720444487      0.64569632990672      0.44887284356842
  H   -4.37985706654684     -1.33680731287255     -0.13836070002461
