27
Coordinates from ORCA-job ./opt_b97-3c_parallel
  N   -1.24896081840436     -3.88435870249959      0.00587363066751
  C   -1.35119371501909     -2.72806513264849      0.01015324534710
  C   -1.61151814698905     -1.32818910754961      0.01780723397954
  C   -2.97186509373721     -1.01264802180154      0.03466844798884
  N   -3.63276107425363      0.13217392848173      0.01819361335847
  C   -3.09063519036774      1.34477246075187      0.02163134913046
  N   -4.01301838330306      2.36009446351136      0.03849900287480
  H   -3.74436765001409      3.27349747562506     -0.27897427974651
  H   -4.95583625040814      2.08027819922521     -0.17030244023624
  C   -1.73369576375685      1.73127987086014      0.06013915842059
  C   -0.56012630621293      1.00331876478990      0.04777180185974
  C   0.64750135840463      1.73765633150803      0.07413935312486
  C   1.85465231509185      1.09255808072519      0.04677643697642
  C   1.82937943050222     -0.39751409472571     -0.00799384793451
  N   0.69488931238612     -1.11320745503091     -0.02090244055435
  C   -0.46448628891612     -0.48186537765190      0.00785708792951
  C   3.12372181160481     -0.84099799398218     -0.03437327655916
  C   3.96780923584408      0.32818833145746      0.00737821695653
  N   5.31184355050408      0.26803567388436     -0.02659661307897
  H   5.86130698565379      1.09313146393068      0.12785568620573
  H   5.78088442645860     -0.61221596904561      0.07821997395360
  C   3.19155734562185      1.49745050851992      0.05518369844671
  H   3.56666703914465      2.50780675355993      0.08863931994164
  H   3.45619191480854     -1.86524661184093     -0.07846144122787
  H   0.59337565985131      2.81907769369615      0.10809250958036
  H   -1.58461712643512      2.80576415253206      0.10435922184281
  H   -3.62622219145913     -1.87746205238255      0.04855490965240
