20
Coordinates from ORCA-job ./opt_b97-3c_parallel
  N   -5.50419492507210     -0.11832788454007      0.23727674205109
  C   -4.34933973532585     -0.04911516607906      0.14801248326296
  C   -2.93567271863113      0.01930806456210      0.03278636390135
  C   -2.26715901878115     -1.20876934205475     -0.18726626182324
  N   -0.99622759923781     -1.49422330642013     -0.13901266776834
  C   0.09071500898192     -0.72410240612165     -0.02067866860173
  N   1.21358353213804     -1.42730016370265      0.19324570133854
  C   2.33159838937752     -0.72721042260711      0.17575516577932
  N   3.58546385705859     -1.16083859816672      0.32649314071598
  C   4.30193031295283     -0.03423440333542      0.08125018559049
  N   3.64898317857700      1.11582253609817     -0.22282825203477
  C   2.37229180377732      0.72896749307992     -0.15402985555690
  N   1.28054632645081      1.44974794228367     -0.30281718711016
  C   0.12531636236372      0.76503324869682     -0.17364416402758
  C   -1.00092572786016      1.58225463296615     -0.05553695937782
  C   -2.34016252878997      1.27284055593162      0.10013030497573
  H   -3.00677085471944      2.11147433416576      0.24787128818866
  H   -0.75363122611857      2.63598760522997     -0.07071962123460
  H   5.38169382059361     -0.05341517665810      0.12623386847144
  H   -2.91070066513550     -2.06429252212879     -0.36798179304048
