25
Coordinates from ORCA-job ./opt_b97-3c_parallel
  N   -4.41424746561103     -1.92767873144207     -0.39829067212215
  C   -3.74853316322857     -0.99087165494184     -0.22018195247061
  C   -2.96218278541958      0.14635020162762     -0.00193993394186
  C   -3.41834110881191      1.40341982213085      0.39088099131513
  C   -2.34414907563478      2.32350839608812      0.52218937231185
  C   -1.17616826538395      1.66017504818774      0.21407881198446
  N   0.06416145024995      2.15121768751921      0.10580889849470
  C   1.05043778212701      1.32521851302996     -0.18316960817681
  N   2.21879014528095      1.90578569399988     -0.53266935931091
  C   3.40487746451286      1.37851736987041     -0.61168248498576
  N   3.92837820305682      0.23811507458303     -0.12980260245042
  C   3.21926478033223     -0.81941340766967      0.18965546668217
  N   3.87980445405432     -1.83571762830922      0.77788058650877
  H   4.85826965514094     -1.72108772061311      0.97498682843073
  H   3.41878052710491     -2.67225802600312      1.08159996514454
  C   1.82737284291627     -1.06143443625179     -0.10039847669049
  C   0.83953542827380     -0.14544483220701     -0.26532866316360
  C   -0.53290361705662     -0.62892233627244     -0.37235040567693
  C   -0.75684681039305     -2.00280157472706     -0.62732778709033
  N   -0.85865463656832     -3.14006601242692     -0.83479853243552
  C   -1.53777975167638      0.25127274352258     -0.10872072938459
  H   1.53524737168488     -2.10535010868906     -0.11571127454875
  H   4.14929403365060      2.01927935222322     -1.07413871916963
  H   -2.42609823055606      3.36205169369280      0.79388716237299
  H   -4.45750828304538      1.63637442707786      0.56459744487304
