27
Coordinates from ORCA-job ./opt_b97-3c_parallel
  N   4.75077841304414      1.63873885018898      0.14006587334799
  C   3.78868954021918      0.98358578870871      0.15425657042895
  C   2.58904196990665      0.24105073761950      0.13378956222139
  C   2.67079226070084     -1.08134307524256      0.58512499124357
  N   1.86116468896814     -2.08890082482912      0.40531577496168
  C   0.63010205965757     -2.04742499662687     -0.11383090750856
  N   0.24089956297010     -3.22773851001374     -0.63132694504844
  H   0.87548709721206     -4.00399773427282     -0.56657174760678
  H   -0.56817085765992     -3.30512528160784     -1.21667388096947
  C   -0.30926190872596     -0.96844343925482     -0.06684524793644
  C   -1.66193781391603     -1.31007925625833      0.03556092913820
  C   -2.65198167930895     -0.35028565633859      0.07887694549856
  C   -2.27613985743305      1.05739862547744      0.00533551746197
  C   -3.48223648997991      1.76234101234011      0.12522464049466
  N   -4.52753869492054      0.91517464770464      0.24676933663800
  C   -4.04389421975267     -0.34813177645701      0.23310761185423
  H   -4.70551597180745     -1.19602376143710      0.32611766661437
  H   -3.63209616821166      2.83146578753547      0.11887832354353
  C   -0.94623659092827      1.40159743026916     -0.11705440144347
  C   0.07224445304592      0.43957206104471     -0.15650984419479
  C   1.41547459818219      0.91200572437068     -0.32362048242904
  N   1.60360288952907      2.13212274428968     -0.85430344478689
  H   0.85062911676080      2.63342904914341     -1.28280711153852
  H   2.51926439503143      2.54693673095700     -0.88347517918883
  H   -0.68894189940026      2.45234707538456     -0.09433314979864
  H   -1.92937413043335     -2.35126810446781      0.16161748692578
  H   3.59751426124995     -1.34167363502744      1.08751578387694
