25
Coordinates from ORCA-job ./opt_b97-3c_parallel
  N   -2.64890940003041     -3.58152486963039      0.00007383988633
  C   -2.42938559859439     -2.44225548232793      0.00015114124669
  C   -2.31078589598113     -1.02158234587280      0.00000566109375
  C   -3.52315820545517     -0.34036606025309     -0.00285319608514
  C   -3.74520388780148      1.02489233289069     -0.00349798063240
  C   -2.79328593735491      2.03465420444298     -0.00153008968318
  N   -1.47364093956969      1.98172120294317      0.00087960687229
  C   -0.64887656676027      0.93966066366684      0.00257933402661
  C   0.72805808375641      1.30177982872038      0.00465109207094
  C   1.10020006576579      2.66782905718421      0.00452660092348
  N   1.46373900723764      3.76883078159120      0.00453875645200
  C   1.69312677217892      0.30484473280809      0.00699772787622
  C   1.23785806462697     -1.10463562927750      0.00734443910603
  C   2.38287804278573     -1.86297995987917      0.01010048804248
  C   3.44404667649433     -0.90222579150517      0.01125196792776
  N   4.74894266144714     -1.16026416883156      0.01376504518319
  H   5.39605370381302     -0.39074229810734      0.01490387844197
  H   5.10572774837448     -2.09717715764587      0.01606766038066
  N   3.02208650168827      0.39675781369461      0.00935257053237
  H   2.46496590767815     -2.93631687576435      0.01113223718474
  N   -0.04886079262005     -1.46669109099505      0.00519396853166
  C   -0.97508629802364     -0.51843012422932      0.00276829679259
  H   -3.17861631615825      3.04997488567588     -0.00221034590034
  H   -4.77836366264480      1.34835100126186     -0.00571863089426
  H   -4.40246124665265     -0.96997881966039     -0.00469267857647
