26
Coordinates from ORCA-job ./opt_b97-3c_parallel
  N   -4.38210819816601     -2.00062643473724     -0.00292985664838
  C   -3.72184453856607     -1.04306334789098     -0.00154074464069
  C   -2.95712409705540      0.12974519111064      0.00009680563367
  C   -3.47619535304808      1.44661162538031      0.00250413011667
  C   -2.45072196813324      2.39867507457167      0.00365973067246
  C   -1.23987517042904      1.71119450699647      0.00201312986336
  N   -0.01298859894548      2.20657250365155      0.00160504236965
  C   1.03505318016731      1.37886205275161     -0.00010490193421
  N   2.20555613701337      2.02985033088411     -0.00187340905252
  C   3.43376734587883      1.56392294391028     -0.00253582841388
  C   3.96447416605718      0.27788703689248     -0.00020445002277
  C   3.27303106519092     -0.92650690766677      0.00169400844102
  N   3.96751064286907     -2.09319510217164      0.00384840752571
  H   4.96926096321944     -2.10189674296017      0.00552516713963
  H   3.50091468100423     -2.98010807445118      0.00600040295456
  C   1.86201485813832     -1.04045639724611      0.00067075209010
  C   0.85529359264439     -0.10807538874572     -0.00065274484112
  C   -0.49569584024874     -0.62335292981727     -0.00149952440127
  C   -0.70567319714143     -2.02434891704921     -0.00296305799816
  N   -0.81384187638879     -3.18015152408082     -0.00382867853311
  C   -1.55192172749025      0.25332474659176     -0.00013347550227
  H   1.51736640287174     -2.06821870671070      0.00092121931958
  H   5.04760061823408      0.22349333464442     -0.00021241678473
  H   4.18345251729552      2.35153522781241     -0.00474964334434
  H   -2.56395601130705      3.46903228569441      0.00533732998717
  H   -4.53280881446480      1.66651625423567      0.00327089810385
