29
Coordinates from ORCA-job ./opt_b97-3c_parallel
  N   6.07706025641662      0.76548436067720     -0.00172191763671
  C   4.91521878288867      0.74089220667739     -0.00128691081655
  C   3.50087511905953      0.65714860931852     -0.00076665432217
  C   2.82586094586766      1.86489989513471     -0.00025411631209
  C   1.47430916066118      2.14589711587189      0.00018225697847
  C   0.35123657061170      1.32030978541700      0.00050259138907
  N   -0.79866731116788      2.02775900242594      0.00087319959483
  C   -1.94120609274523      1.37438350307916      0.00151840603323
  C   -2.01965218720017     -0.09802898954036      0.00191985525156
  C   -3.37836364331547     -0.39007363244003      0.00254013991897
  C   -4.04408970562736     -1.61341389922342      0.00318445436854
  N   -4.65652801875035     -2.60460120818849      0.00378667765994
  C   -4.02094192134941      0.90941057803206      0.00251019520313
  N   -5.33415356311082      1.10216964353106      0.00297036152448
  H   -5.97471104255696      0.32832701928596      0.00361587766665
  H   -5.69438996305716      2.04010513720852      0.00305103463236
  N   -3.15811625114450      1.94560243038947      0.00189900636210
  C   -0.84854241083165     -0.82455628633437      0.00144455944519
  C   0.38193644236600     -0.16270786063293      0.00066641846242
  C   1.56305405158894     -0.96921816955316     -0.00007611557150
  C   1.33337177045504     -2.36983559716102     -0.00000487863128
  N   1.23868870010013     -3.52820367318267     -0.00001538779148
  C   2.94795941946315     -0.66156180049076     -0.00091291614194
  N   3.83436288143273     -1.68118453999602     -0.00184894550425
  H   3.53226965873483     -2.63869347022948     -0.00174405189877
  H   4.82237162095219     -1.50374320446930     -0.00203424662771
  H   -0.89001819794718     -1.90368381965008      0.00161714562698
  H   1.21302564974525      3.19467507640262      0.00032091684738
  H   3.46885431046051      2.73494902364060     -0.00026153501079
