27
Coordinates from ORCA-job ./opt_b97-3c_parallel
  N   -6.03508214612241     -0.03055361908389      0.00066128432903
  C   -4.88578675609943      0.13657300418396      0.00027391412109
  C   -3.47406543495139      0.26594691306670      0.00043038072164
  C   -2.97039891487531      1.56161953634208     -0.00107823239109
  C   -1.66821382776423      2.01817009226080     -0.00129197721798
  C   -0.44130766008652      1.34838509557558     -0.00026050688280
  N   0.61212023551872      2.18957844289095     -0.00096908234920
  C   1.82225009011908      1.67755980376116     -0.00031107840807
  N   2.96385178046612      2.39537623896672     -0.00093117680936
  C   3.94524552388150      1.48088730739013      0.00000077755324
  C   3.50127817692219      0.12933421925330      0.00129996931671
  C   4.31531597444152     -1.01010687298882      0.00240137440962
  N   5.01613825673973     -1.93738811185918      0.00335875325635
  C   2.10488402516598      0.22128525151132      0.00112661580032
  C   1.03582121990660     -0.65231767663569      0.00197670130134
  C   1.23753879498549     -2.05277653845065      0.00347296187337
  N   1.35354454139873     -3.20793202029352      0.00484758850861
  C   -0.29761214661872     -0.12042217045528      0.00133706020244
  C   -1.33410256879792     -1.03865627923555      0.00240235766268
  C   -2.73485350158470     -0.94760401501071      0.00217629170888
  N   -3.41617011541085     -2.11740957760881      0.00383539175707
  H   -2.93159642848298     -2.99490197495870      0.00442161214428
  H   -4.41984017054318     -2.14376532141727      0.00322009781537
  H   -0.99149960544406     -2.06692900011567      0.00370451925656
  H   4.98150405776224      1.78669227003529     -0.00024738899394
  H   -1.54698156906276      3.09261094702046     -0.00250758597450
  H   -3.72520413486344      2.33601475325529     -0.00224271191163
