23
Coordinates from ORCA-job ./opt_b97-3c_parallel
  N   4.18431423046344      2.45700960320628      0.80002260218922
  C   3.67110111057076      1.45993888597960      0.48829069486795
  C   3.00601646605938      0.28651924827132      0.12332302478983
  C   1.57030412620342      0.07537841505852      0.21886543851462
  C   1.29962152129071     -1.29432474329640     -0.26873893550506
  C   2.50111850026539     -1.83731123303807     -0.65284026404667
  C   3.53409907511250     -0.86990925945548     -0.41023616478710
  H   4.58222875909195     -1.02525948851292     -0.61333309062341
  H   2.64915283629573     -2.82588003994944     -1.05440183031076
  N   0.07931871196236     -1.86868357636577     -0.22009849342141
  C   -0.93761549332184     -1.12126873021506      0.13468735605332
  N   -2.07563083653992     -1.74898416811465      0.51730969744000
  C   -3.24879045511876     -1.20285587717543      0.68053660277961
  N   -3.76894565471403     -0.04028037858177      0.25779296393472
  C   -3.01962510611393      0.96524171248726     -0.14525144814644
  N   -3.59857925555445      1.92623686082455     -0.88162652258716
  H   -3.12361222331126      2.79969745713194     -1.01642537294686
  H   -4.58282583282473      1.86262389542054     -1.06928349186524
  N   -1.72237477429959      1.25261102705072      0.19561301483563
  C   -0.78529081461521      0.36450022910497      0.32643549034890
  C   0.54425337475946      0.87851410741646      0.55299618520611
  H   0.65807178504521      1.91843220469419      0.82781741987822
  H   -3.97501708930646     -1.83835183914217      1.17773199670205
