24
Coordinates from ORCA-job ./opt_b97-3c_parallel
  N   -1.96211024102939     -2.90602313810011     -1.29251806340059
  C   -1.87306411067930     -1.86652759804019     -0.78401299444157
  C   -1.83295444404084     -0.55062427771313     -0.24239251773648
  C   -3.06842616109427      0.06401036872572     -0.16909251503002
  C   -3.35518573846174      1.34625150558599      0.30835458648708
  C   -2.44712587429686      2.34373912828334      0.56265049710009
  N   -1.16351945703924      2.41130274367624      0.19549950875653
  C   -0.31372803274667      1.45813012245762     -0.07016634408064
  N   0.92309797530858      1.93713981954284     -0.45190130993937
  C   1.93430150264867      1.13592221788611     -0.32890083631045
  C   1.85023371956511     -0.25263130348637      0.19940084359419
  C   3.12279594341255     -0.72164036904246      0.31519718590874
  C   4.02375631269439      0.31954916011580     -0.15987958516270
  C   3.32720955871566      1.42351183350569     -0.55371048772532
  H   3.71312250039480      2.35708623540507     -0.92487426419319
  H   5.09787488869993      0.21393311988619     -0.18630004735219
  H   3.42418912310959     -1.69516995271378      0.66688558598392
  C   0.56047141468726     -0.80921180459867      0.33919341749837
  C   0.46142738145878     -2.16400534323225      0.73653587341938
  N   0.46984914806174     -3.25319100478714      1.13706515787013
  C   -0.54560546602781     -0.00363153909285      0.09018444108719
  H   -2.81869785589725      3.26193767531668      1.00442427160134
  H   -4.39898227949873      1.58678973944858      0.46625316406009
  H   -3.91245296584627     -0.54340360153176     -0.46551204339466
