34
Coordinates from ORCA-job ./opt_b97-3c_parallel
  N   -5.35499924626681     -0.77859339174177      0.65508263757555
  C   -4.30579974235009     -0.35251497189619      0.37855065940213
  C   -3.01746451976705      0.11784485264485      0.06781527166859
  C   -2.92788245334709      1.28268127586411     -0.72776026203213
  N   -1.94186628545352      2.11064507960724     -0.81996639883032
  C   -0.76881980336563      2.04047448564905     -0.14133104678673
  N   -0.36721028530215      3.29983877785297      0.25826917350610
  H   0.11804649121620      3.35897176762110      1.13896997403487
  H   -1.08414246174165      3.99512405778717      0.12656207760837
  C   0.04347009948016      0.91405614852719      0.02994794517655
  C   1.47305700109545      1.06214586294988      0.12044908568885
  N   2.10624780878244      2.28517960252804      0.16073523499144
  H   1.59640759836196      3.05987973248234     -0.23626805679648
  H   3.07307587628244      2.23355979746181     -0.13905477711512
  C   2.27018264118364     -0.07826234316936      0.09102073093073
  C   1.70031041592842     -1.37669087206627     -0.17470872051685
  C   2.75706701899519     -2.26669738463945     -0.39764561011445
  C   3.96351617969399     -1.56075613132270     -0.23097790076802
  C   3.68119867247578     -0.22603677224527      0.06466270444440
  N   4.60602082401089      0.83123557416802      0.23452174518693
  H   4.59970610861363      1.19309653093827      1.18054794098934
  H   5.54670436175187      0.52962006357220      0.02559947235734
  H   4.95463094078720     -1.98311701117017     -0.31559027081275
  H   2.69267387371519     -3.32129765472255     -0.62025520822487
  C   0.31228900409878     -1.54900365683821     -0.16509632871506
  N   -0.18458992279235     -2.85984295099351     -0.27461553552555
  H   -0.96336075848899     -2.94462117966019     -0.91107210217669
  H   0.53706848873886     -3.51352460051072     -0.52911335538442
  C   -0.53634993031223     -0.44918339881584      0.01541368808079
  C   -1.90541833749430     -0.67984439903428      0.42988028628657
  N   -2.16555056961487     -1.76306414726071      1.18817195004492
  H   -1.46106483285536     -2.48216697116315      1.25639263832586
  H   -3.12172772519353     -2.03847301494087      1.34321679724834
  H   -3.81410495006588      1.54992699303702     -1.29754745164855
