21
Coordinates from ORCA-job ./opt_b97-3c_parallel
  N   -5.50893086130160     -0.08040151183293      0.20586669840549
  C   -4.35273011728346     -0.01778657049649      0.12775702481830
  C   -2.93705917053687      0.03528963340989      0.02811642785544
  C   -2.28054961846017     -1.21465670112167     -0.16086609145729
  N   -1.01805564705773     -1.52063668436291     -0.15370732227075
  C   0.08722006147939     -0.75680375808820     -0.05867333368426
  N   1.20574101660882     -1.46930585888914      0.06374792380513
  C   2.34618336239839     -0.78451042121250      0.07534939372828
  C   3.66666031169873     -1.17069975241416      0.16224563276125
  C   4.39916452745970      0.03464540582837      0.01502164948104
  N   3.65915030541797      1.15035983200661     -0.16110436700614
  C   2.39030589176824      0.70113267161176     -0.11943638439045
  N   1.30136838254023      1.42333241550061     -0.21086753174795
  C   0.13122750343285      0.74006453893610     -0.13237318966624
  C   -0.97833675199728      1.56877160417341     -0.02700147217067
  C   -2.33272627357579      1.27709365642724      0.09017817170264
  H   -2.98983597900852      2.12646308449464      0.21785751241178
  H   -0.71666170663366      2.61898461863393     -0.02555983364930
  H   5.47789475347388      0.11484363715077      0.03176882857779
  H   4.06186190440598     -2.16260391734528      0.29939070156673
  H   -2.94531233502810     -2.06320521610940     -0.29391192957070
