26
Coordinates from ORCA-job ./opt_b97-3c_parallel
  N   3.32577678146138      3.13185741133301      0.00010115494902
  C   3.02391302595123      2.01144856310306      0.00037219752098
  C   2.70785348423104      0.61963540103396      0.00051360270602
  C   3.85537841753319     -0.18143719150904      0.00013187738123
  C   3.97204356346975     -1.55555467690182      0.00008007026214
  C   2.94876393324490     -2.49318518707615      0.00041391546595
  C   1.58875347883350     -2.27846771424308      0.00088171728183
  C   0.80863930730250     -1.10485647250214      0.00116291378317
  N   -0.50653037418925     -1.37509112104545      0.00162085910315
  C   -1.35723044523198     -0.35999698918517      0.00191699472031
  C   -0.94793152197259      1.04981621483011      0.00177231307545
  N   -2.00357499404497      1.88274209186686      0.00213613898415
  C   -3.08346966534917      1.06957536542493      0.00251232451848
  N   -4.31966012603234      1.56013441104416      0.00293838985234
  H   -4.45430579009572      2.55535040311017      0.00298270494596
  H   -5.12031372588257      0.95428708120033      0.00321441280094
  C   -2.75225524607009     -0.33642217583395      0.00239758598826
  C   -3.67974402267264     -1.37593943515213      0.00271874513801
  N   -4.51493526931893     -2.18722771992927      0.00296650688844
  C   0.39688050307320      1.33344100633701      0.00130666045399
  C   1.32681196042677      0.28254802353217      0.00098717395974
  H   0.72615859953765      2.36175270974051      0.00119203525420
  H   0.96603578134650     -3.16332489307964      0.00108617456345
  H   3.25493386543135     -3.53155075275583      0.00029669182198
  H   4.98312613424465     -1.94218324657917     -0.00026430653386
  H   4.78644194327261      0.36893404003654     -0.00017871768535
