26
Coordinates from ORCA-job ./opt_b97-3c_parallel
  N   -1.56266704831033     -3.27717310830238      1.18199817031973
  C   -1.68735500428090     -2.24719146468696      0.66243094427680
  C   -2.00398510430301     -0.95212622925727      0.15170300490788
  C   -3.37178113132168     -0.80100413601479     -0.03986337020208
  C   -4.10300603016746      0.33420916958932     -0.38001036272182
  C   -3.65990248684966      1.63455375443461     -0.41885483506616
  C   -2.37896560305272      2.10187322695136     -0.14125779925709
  C   -1.16546681135189      1.44350271797457      0.04465806926878
  N   -0.14484770616849      2.32407219099749      0.23281548509550
  C   1.08272566539359      1.87139103426051      0.24616017546149
  C   1.43874935202328      0.45467139153031     -0.00133487692258
  C   2.82616154000025      0.38654265559643     -0.02877329478308
  C   3.65631781061732     -0.72369799702213     -0.22951298502818
  N   4.39591517217822     -1.60693301583242     -0.38574816518368
  C   3.32169745215926      1.71900183490141      0.23039771563416
  C   2.28462980670553      2.60600998789168      0.39058547870937
  H   2.35061221511053      3.66411814029749      0.57614862230742
  H   4.37336521715735      1.95384870183449      0.28071468484699
  C   0.39325456779140     -0.46135419966018     -0.13215716019857
  C   0.70538056988175     -1.79684844655146     -0.49140563266960
  N   1.00774589920252     -2.84458286221072     -0.88665807727970
  C   -0.93980692263451     -0.01138836859338     -0.01772711926535
  H   -2.26079659156008      3.17665901081388     -0.10505907275197
  H   -4.39864926309351      2.39423266318979     -0.63780286465991
  H   -5.15659825723753      0.17145520138585     -0.56886198978765
  H   -3.94980131839063     -1.70340464041724      0.10277546064889
