24
Coordinates from ORCA-job ./opt_b97-3c_parallel
  N   5.76969781559434      0.03367594869251     -0.00222357580438
  C   4.61184078084775     -0.03762412110350     -0.00141136013707
  C   3.19114273020045     -0.13138564423888     -0.00042882642747
  C   2.65213603194334     -1.42585838969602     -0.00027099134431
  C   1.33040974785659     -1.79994797709857      0.00026764699471
  C   0.12099103645589     -1.07475636802502      0.00072404042284
  N   -0.95369695344258     -1.87585761461127      0.00071615553153
  C   -2.15470930941505     -1.31052907248965      0.00029105576274
  C   -2.37675668857729      0.15696612991631     -0.00027055794179
  N   -3.68170656266037      0.45734726367921     -0.00195196749875
  C   -4.29876805479208     -0.75460348034655     -0.00167949488417
  C   -3.43034139026401     -1.86057903855685      0.00033761001208
  H   -3.69410794193883     -2.90402806271046      0.00075998916937
  H   -5.37904554292988     -0.79609187483966     -0.00322574235565
  C   -1.27334345462801      0.98720674163499      0.00032755738531
  C   -1.44520701453926      2.39378992550492     -0.00059002285508
  N   -1.56002185159744      3.54797870527287     -0.00121455821782
  C   0.02944004921234      0.40111105107685      0.00081329650104
  C   1.11705187057679      1.27151027077194      0.00044744359312
  C   2.48817408919675      1.06840008722186     -0.00006832029020
  H   3.08882991688469      1.96715689828214     -0.00040582809716
  H   0.84339287139081      2.31928094785764      0.00036032821451
  H   1.14769236864553     -2.86657090609394      0.00010653260050
  H   3.37026830537958     -2.23384558570071     -0.00073781173391
