28
Coordinates from ORCA-job ./opt_b97-3c_parallel
  N   4.60739280408170      2.60380654528332     -0.16340430207562
  C   3.80123643673146      1.76705969981823     -0.12296504986137
  C   2.81645309990633      0.75042985938946     -0.06970280327680
  C   3.25141786606788     -0.55772176577210     -0.30545331542199
  N   2.62758588191490     -1.70264095440236     -0.15470027704422
  C   1.33448916076533     -1.91227388571260      0.11859289268045
  N   1.10770603736037     -3.18074113202497      0.52569202774504
  H   1.91175552898254     -3.77678001911162      0.61667837513979
  H   0.27134296187955     -3.42429356334134      1.02094578741340
  C   0.20311213111199     -1.04478750890541     -0.03443700338222
  C   -1.05935400054954     -1.61357848732286     -0.19588477633787
  C   -2.21475587628513     -0.85312966601264     -0.18102734880031
  C   -2.11126306715137      0.59357750026623      0.06495611273697
  C   -3.43987467002711      1.11981279651093      0.04227568642038
  N   -3.78479223099343      2.43321579489904      0.29826392246651
  H   -4.69715229557173      2.69890156984285     -0.03451832259302
  H   -3.09259188080359      3.11454042680103      0.03187107151464
  C   -4.30303429897906      0.05053299777372     -0.19400426013650
  C   -3.56388965017173     -1.14739246632938     -0.33551246476637
  H   -3.98665009610437     -2.11995552952213     -0.53462974521656
  H   -5.37850462929830      0.12770286442768     -0.26119648850756
  C   -0.88723091769560      1.16813322497288      0.21267840284847
  C   0.31569634590559      0.41102043425314      0.11979499769099
  C   1.48314308338482      1.14820273889169      0.15283630936533
  H   1.35198590896863      2.21246712279335      0.30304720994748
  H   -0.78749464488570      2.23612983813948      0.36849353204048
  H   -1.14318684886910     -2.67722521699178     -0.37933146520588
  H   4.28769372782467     -0.66117849881362     -0.61339981958349
