27
Coordinates from ORCA-job ./opt_b97-3c_parallel
  N   -5.58683127785863     -0.99773658738484      0.02263248221570
  C   -4.42697543452241     -0.91841880186256      0.01592994712669
  C   -3.02013024675512     -0.76361605402769      0.00833566555851
  C   -2.27738365830333     -1.94738781729403      0.00533279531992
  C   -0.92444132745199     -2.16301596234524     -0.00156485358467
  C   0.16112334397436     -1.27218277003624     -0.00786908505674
  N   1.35900736514982     -1.87070351774274     -0.01368275103600
  C   2.42792682714454     -1.07572064460158     -0.01982603238524
  C   2.29984483481828      0.40926671470654     -0.02019940828706
  N   3.49218449914779      1.00952710940805     -0.02685787688027
  C   4.37528058463498     -0.02712455089097     -0.03075353528120
  N   5.68021817983825      0.23380275988513     -0.03777404081375
  H   5.98297147371253      1.19241385146714     -0.04006276487927
  H   6.36783644574669     -0.49570465826142     -0.04090138707703
  C   3.77612813372507     -1.33087758535377     -0.02670530479998
  H   4.27977874957634     -2.28289703281115     -0.02866316952717
  N   1.12447063479136      1.00042822194682     -0.01448203697334
  C   0.03353881391986      0.20309449991869     -0.00825342900169
  C   -1.16389618999540      0.94704394535989     -0.00259096054777
  C   -0.96162613727882      2.35748677643549     -0.00465330415337
  N   -1.01595411727404      3.51816270841358     -0.00495748284382
  C   -2.54313067246722      0.57145737920835      0.00479994260410
  N   -3.45794655064146      1.56154463726371      0.00868616433667
  H   -4.44022020648195      1.35362063111919      0.01421247943583
  H   -3.17661722095529      2.52621852122820      0.00678669293672
  H   -0.60776660050335     -3.19729562923048     -0.00244874329962
  H   -2.88180427479169     -2.84464813961866      0.00916765449415
