24
Coordinates from ORCA-job ./opt_b97-3c_parallel
  N   -4.42707927116855     -1.44937918200735     -0.00026409534190
  C   -3.61125292701018     -0.62117624230670     -0.00042457301589
  C   -2.66557937364637      0.41240181856926     -0.00082823393080
  C   -2.98847201429594      1.80921751569679     -0.00153778624819
  C   -1.84380333062985      2.58623735340466     -0.00178870510395
  C   -0.74450709074603      1.71101219478378     -0.00123562003865
  N   0.53641719949652      2.01199091317352     -0.00122685677812
  C   1.43297872859597      1.00212342024092     -0.00062247683881
  C   2.75623868899856      1.43934740104508     -0.00067082532642
  C   3.97073260672089      0.75345462004097     -0.00017605448600
  N   4.24600184149661     -0.54045503662225      0.00050462473834
  C   3.33531894268798     -1.50837202164517      0.00086592340766
  C   1.94417076373751     -1.47449554655042      0.00066276619789
  C   1.03367202552688     -0.41932460337980      0.00002418901796
  C   -0.35509073770443     -0.72124875914628     -0.00001459443058
  C   -0.78459522367284     -2.07198975054739      0.00056199740509
  N   -1.10512962125357     -3.18683166575273      0.00079279609838
  C   -1.27409606552019      0.31703033465401     -0.00061877447493
  H   1.49665270187740     -2.46127374543643      0.00108697380435
  H   3.76498313058168     -2.50416589534113      0.00141884376335
  H   4.85241671901915      1.38584322042194     -0.00037807860003
  H   2.83619921894735      2.51912058373414     -0.00119245680651
  H   -1.78719570506195      3.66100365465523     -0.00230606363277
  H   -4.00204436867660      2.17915299001531     -0.00182947367950
