28
Coordinates from ORCA-job ./opt_b97-3c_parallel
  N   2.86190100560447      3.83421252854770     -0.30888786557272
  C   2.63634738369822      2.69816093759924     -0.23179812914765
  C   2.47464430670622      1.29002393838496     -0.15149662641519
  C   3.64452416923297      0.54966450825258     -0.41976843134621
  N   3.92096697331972     -0.72000150681650     -0.26363522122943
  C   3.02526576014609     -1.62796607144330      0.16907410070765
  N   1.69716817695708     -1.64373383383712      0.05272806005250
  C   0.85079546393667     -0.64515913365613     -0.05356687506172
  C   -0.51510199264195     -1.00633453439110     -0.24613549093203
  C   -0.83556781032196     -2.37025335434728     -0.43878563676770
  N   -1.11347704104378     -3.48486153506717     -0.60045631518902
  C   -1.49220349396804     -0.03096033427723     -0.13404914271369
  C   -1.05457960811486      1.35727866826154      0.19042482778997
  N   0.22518493960925      1.72820233655127      0.25247956466832
  C   1.16326967182830      0.80900337321602      0.07550119330557
  C   -2.17295903595024      2.14419248754921      0.35389381480696
  C   -3.30335999151745      1.31286598655544      0.12929889346753
  N   -4.57660611227927      1.68294323221925      0.18239243222647
  H   -5.30960718192976      1.01598407806125      0.00264238622160
  H   -4.84126925913791      2.62657034996858      0.39860267409289
  C   -2.88483380182219     -0.03253374321804     -0.17577068315829
  C   -3.80187845877774     -1.05345502850742     -0.42719172283392
  N   -4.66429013432842     -1.81155172611343     -0.62161837797724
  H   -2.18547602511951      3.19540872659806      0.58615481299880
  N   3.55815133346811     -2.74189497898912      0.69975068482893
  H   2.96201820068118     -3.53303350794141      0.86472509455939
  H   4.55309686242068     -2.86860544328566      0.66102467001685
  H   4.47751269564433      1.13928935512550     -0.78806240779861
