27
Coordinates from ORCA-job ./opt_b97-3c_parallel
  N   -5.96221153149719     -0.76504937210213     -0.31220311475167
  C   -4.80680286157483     -0.72685668813199     -0.21239724823783
  C   -3.38982876009606     -0.69656575589891     -0.09628555204871
  C   -2.72454229431911     -1.92957794228224     -0.16085704665547
  C   -1.38515568917349     -2.17399163452653     -0.02454145899295
  C   -0.25313770410538     -1.33237923801529      0.08349474154272
  N   0.87803327054649     -2.03058833295994      0.21835320939993
  C   2.03653415693003     -1.37398372054543      0.18013030642649
  C   2.13403836668746      0.07373263609846     -0.10380198848072
  N   3.39433461658151      0.47560019697365     -0.21389079788185
  C   4.12646008629416     -0.65874912308532      0.02713205454136
  N   5.45350070502978     -0.57934629953590      0.01183283346312
  H   5.88394654496006      0.30965724457991     -0.17680273684472
  H   6.03697285022971     -1.37438027759036      0.19294929766889
  C   3.33601401547342     -1.82201417705188      0.26785328914767
  H   3.67940759399439     -2.82564370437431      0.45078139469593
  C   0.95539031025547      0.80980329051583     -0.21765305026431
  C   1.06632846169903      2.16066609019259     -0.62617949414072
  N   1.23495721916432      3.22516653503532     -1.05525394658965
  C   -0.28005955659839      0.14567121208705     -0.00932291896804
  C   -1.46043933544448      0.90598831755583      0.20403964953189
  C   -1.32168105027086      2.26403532901769      0.62121416045236
  N   -1.32800345666924      3.33288590173361      1.07304706925826
  C   -2.81002355017225      0.54243973145401      0.13154820791969
  H   -3.50179565728079      1.36054288174208      0.27194579947755
  H   -1.09454598719398     -3.21589437007696     -0.03148238413993
  H   -3.35420360323999     -2.79848020400196     -0.29388701051797
