35
Coordinates from ORCA-job ./opt_b97-3c_parallel
  N   -5.37507184273829     -2.33972975594359      1.18569820057685
  C   -4.59773004339280     -1.55815100582415      0.81693669160730
  C   -3.63760783540608     -0.62116978687910      0.35882496538381
  C   -4.01897079324261      0.70579769457760      0.33142339226484
  N   -3.39216741951641      1.75357495121457     -0.20032511240803
  C   -2.11050236379008      1.84385886590943     -0.47994604152861
  N   -1.78613074365912      2.89507433729083     -1.25781892306564
  H   -2.50903591658259      3.56010149440168     -1.47119173313219
  H   -0.82508183906987      3.14690287890075     -1.41278635254527
  C   -1.00542538334999      0.96468624662682     -0.07920771710180
  C   0.24915970737339      1.48486251280648      0.19255755816777
  N   0.47684309940940      2.84965778802831      0.39787763547862
  H   1.33526880928358      3.01289977963633      0.90731381686089
  H   -0.29001683238193      3.32384502140697      0.84923376176345
  C   1.37274377668055      0.62380448350808      0.20188335375028
  C   1.21505348989339     -0.77915422431507     -0.11988115538986
  C   2.50300411609471     -1.38556605763368     -0.08491773770146
  N   2.76216572590358     -2.73218614073191     -0.31186305282083
  H   2.24866590420011     -3.34936443319978      0.30297569790395
  H   3.74619611120324     -2.95463308484563     -0.26072419737520
  C   3.43177664143401     -0.37508358115369      0.18456304142157
  C   4.81321340106710     -0.54353869800156      0.29265741985396
  N   5.96725422641269     -0.67774447787515      0.38327360081669
  C   2.72803806071101      0.87626532924197      0.33995309729500
  N   3.33835221440202      2.11392671678231      0.57764361606426
  H   4.32461643634787      2.01932671742800      0.77480288586482
  H   3.22764397478526      2.76086947190270     -0.19164870810508
  C   -0.01181157895003     -1.30282649944285     -0.46684233855086
  N   -0.13615009917229     -2.59171300773839     -0.90483381299901
  H   -0.92970304824638     -2.79116795876011     -1.48866643623280
  H   0.71938024552316     -3.01738103782666     -1.23128855521386
  C   -1.19325953297238     -0.47933283315061     -0.24175938780279
  C   -2.37581871965847     -1.14388534118279     -0.04837427883216
  H   -2.34206652736485     -2.22323586812608     -0.08347010687792
  H   -5.00745839662427      0.93441756697388      0.71524432709833
