27
Coordinates from ORCA-job ./opt_b97-3c_parallel
  N   -5.40007257632000     -0.96383643681632     -0.56416363963624
  C   -4.25127096846261     -0.93217148442827     -0.39526500598096
  C   -2.85390881712734     -0.84541643642045     -0.17319690934108
  C   -2.16309360565237     -2.04939952331250     -0.17893874517352
  C   -0.82766873411856     -2.30520640242830      0.04703611116519
  C   0.27275196227784     -1.45298421876313      0.14404055204320
  N   1.42944933852759     -2.11553888725594      0.33195369735461
  C   2.55868697604824     -1.43247862731420      0.26149165035353
  C   2.62056555778767      0.00393848307942     -0.12547936084837
  N   3.87702486112087      0.41684534892114     -0.27693816139297
  C   4.62681105516140     -0.68438760831774      0.03843417100893
  C   3.88934473004670     -1.83141995422953      0.35839904915829
  H   4.26490660382975     -2.80823466352310      0.60863672070571
  H   5.70486134153748     -0.60599812616129      0.02030983121028
  C   1.42824794435765      0.69817853455756     -0.28828189112171
  C   1.48038622633408      2.01812809330710     -0.79786115470743
  N   1.55783161708436      3.05747545073949     -1.30724466342545
  C   0.20475360513899      0.02063773138495     -0.02620824920448
  C   -0.96207900200879      0.78657100282231      0.20848275222533
  C   -0.77061242140086      2.13096489053503      0.62667021779290
  N   -0.77655860158128      3.19910753107108      1.08417124387397
  C   -2.34970930302206      0.44952501831001      0.13515471676927
  N   -3.25397286168382      1.42632947629814      0.34365046309902
  H   -4.23862853975694      1.23363002213692      0.30370486016949
  H   -2.97095933922522      2.37766161347014      0.49942836357677
  H   -0.54689695872833     -3.34763172532648      0.10694797102470
  H   -2.77811051146379     -2.92201773283506     -0.35120679459856
