28
Coordinates from ORCA-job ./opt_b97-3c_parallel
  N   5.54725589183134      1.27092378825776     -0.00457016101356
  C   4.39790269309310      1.09673428882764     -0.00322146730342
  C   3.00634112670455      0.83288883410360     -0.00120580523187
  C   2.18267683133388      1.94370953405551     -0.00138079068402
  C   0.80506891647655      2.05130695569870      0.00026332903427
  C   -0.20539694652605      1.09300331554311      0.00223895478251
  N   -1.43478962793130      1.65070426251423      0.00336559958211
  C   -2.48747166273059      0.85842136175833      0.00484397212389
  C   -2.38601012523798     -0.62187853584264      0.00530010074984
  C   -3.68130277761722     -1.07940660563756      0.00697432725391
  C   -4.47788376209305      0.11258069201824      0.00744390387176
  N   -5.81034135657994      0.16749648945887      0.00861017025352
  H   -6.37532485944066     -0.66031926548044      0.01169657445497
  H   -6.25954750306283      1.06621986241054      0.01037543705097
  N   -3.76309531049623      1.26794112464001      0.00615698372901
  H   -4.03896543621922     -2.09616333549509      0.00771697915299
  C   -1.11861356616182     -1.18702389918617      0.00419911262726
  C   0.01163448918768     -0.37863362587957      0.00265576322597
  C   1.29363193714077     -1.02687647571822      0.00163071933499
  C   1.24303483404177     -2.44426195122074      0.00175820190728
  N   1.28725633638413     -3.60624973829227      0.00134633038647
  C   2.62378146074014     -0.54651504899022      0.00056476934734
  N   3.63808646874675     -1.44401419855829      0.00221272024668
  H   3.46231587804807     -2.43202395490889     -0.00100683636769
  H   4.59378918029086     -1.13862349136868     -0.00377326716715
  H   -1.01633612771082     -2.26223761050208      0.00462324777278
  H   0.41433387001617      3.05913528218435     -0.00002881859031
  H   2.70935046397194      2.88890173441006     -0.00299700693050
