27
Coordinates from ORCA-job ./opt_b97-3c_parallel
  N   -4.77295212911813     -1.21261091418754      1.13390827593246
  C   -3.97046854918981     -0.47004287159001      0.73464832052055
  C   -3.05746125931448      0.47368226064635      0.25695683188148
  C   -3.44461575887192      1.80555051383423     -0.22257155777102
  C   -2.36057009201097      2.50273276806221     -0.64923674629741
  C   -1.21134131488278      1.66488547246295     -0.44277123312317
  N   0.03421760142274      1.97749467728310     -0.64411451717500
  C   0.97414823078287      1.03998266405634     -0.28895664084601
  N   2.15885636843845      1.52910419869575     -0.09293138758701
  C   3.29579470797940      0.88620019714106      0.27242712642202
  N   4.17298822523027      1.71320718721383      0.89380849750112
  H   5.10651069728252      1.41035061227194      1.09943095547196
  H   4.00544483835851      2.70073758944146      0.82074873025763
  C   3.64279904525819     -0.42069727330170     -0.01398040374712
  C   2.73320737305421     -1.42755039584753     -0.39695976489667
  N   3.22988703114210     -2.59054252265394     -0.89514817573992
  H   4.21198819508070     -2.78732700795596     -0.84520578662717
  H   2.60298061180746     -3.37639008557910     -0.90898854990225
  N   1.41715794549264     -1.41668980202584     -0.25642232553924
  C   0.59511495222105     -0.39250268074760     -0.07681076080746
  C   -0.75029323975082     -0.66760809012897      0.23042204740195
  C   -1.12065730829517     -1.99854686516370      0.52706926285450
  N   -1.41454918818404     -3.09377443159917      0.77355733558206
  C   -1.68946776621254      0.36555640685631      0.11549924177317
  H   4.68637890238945     -0.69675805683550      0.08375792420835
  H   -2.32687300007747      3.50931193000477     -1.02799326825274
  H   -4.46704123953069      2.15035640103501     -0.21830763298421
