26
Coordinates from ORCA-job ./opt_b97-3c_parallel
  N   -6.27919151182544     -0.21289250921795      0.00310392735722
  C   -5.12050996528656     -0.27228774486223      0.00220306218382
  C   -3.70035929487099     -0.35327024648121      0.00089138272783
  C   -3.14761006101625     -1.63439213908202     -0.00190249425306
  C   -1.82035140328494     -2.00167436860685     -0.00368804314278
  C   -0.63112436150567     -1.25600985236728     -0.00334565881405
  N   0.47423837739808     -2.03469813933758     -0.00576774649505
  C   1.63649036755336     -1.41534830042775     -0.00553766929909
  C   1.72770641250705      0.06239648420117     -0.00280277119765
  C   3.08332721816572      0.34789296977498     -0.00354407114118
  C   3.77552382489570      1.55836173073746     -0.00198863978818
  N   4.43557323520111      2.51662076866871     -0.00090105454610
  C   3.71397451822231     -0.95977559971727     -0.00664088061212
  N   5.02250368772302     -1.16132894835276     -0.00823714518529
  H   5.66857007605996     -0.39123398173378     -0.00776576998347
  H   5.37701463802852     -2.10200322238326     -0.01077059536492
  N   2.84295711856025     -1.99463074674662     -0.00778531315613
  N   0.65053419512470      0.83479002897624     -0.00046004575607
  C   -0.53181393267689      0.21347389173347     -0.00067101567652
  C   -1.64749901306017      1.10634361441168      0.00192275289441
  C   -1.31215193763049      2.49435985475361      0.00423510175162
  N   -1.16001791058989      3.64391628491764      0.00646538251610
  C   -3.01220764484485      0.86331472457547      0.00255419262366
  H   -3.63268246245890      1.74786611605376      0.00467954727566
  H   -1.62643957501338     -3.06611564871799     -0.00578764739194
  H   -3.85776480097548     -2.44993021366949     -0.00278611772629
