29
Coordinates from ORCA-job ./opt_b97-3c_parallel
  N   -6.06346152625353     -0.56072928575737     -0.01962548042488
  C   -4.90210563117764     -0.60621742082628     -0.01403528218150
  C   -3.48590937930194     -0.60438572680376     -0.00695160586637
  C   -2.87912534666783     -1.85858784943815     -0.00204900327801
  C   -1.55318211209270     -2.22097539071128      0.00500214191705
  C   -0.38444207666456     -1.45221486914143      0.00961469650885
  N   0.74703015250645     -2.17834776370337      0.01602697235666
  C   1.89781923810027     -1.51858742026830      0.02085729750039
  C   1.92951848312414     -0.02994561552020      0.01935087308396
  N   0.82460820455977      0.68762283165633      0.01308861043043
  C   -0.34923094621443      0.02540453405532      0.00797590268031
  C   -1.45846942486426      0.89913675523314      0.00119628082473
  C   -1.10392316120490      2.27833322600906      0.00120952406714
  N   -1.02461164121430      3.43740688524151      0.00021233448185
  C   -2.86685950956919      0.67575997048356     -0.00579561498104
  N   -3.67342969886105      1.75547925946908     -0.01173413635588
  H   -4.67221259505782      1.65270109258818     -0.01629698695514
  H   -3.29264326368749      2.68555680408063     -0.01075425397903
  C   3.26524240077254      0.36590961516357      0.02547627321027
  C   3.83627762980484      1.63746002400388      0.02690884493704
  N   4.40867059938588      2.65167260069774      0.02863443307250
  C   4.04325639769408     -0.85017314639256      0.03059926576601
  N   5.37310886984046     -0.85520374385474      0.03709302500521
  H   5.88667504963756      0.01029585963341      0.03865485799401
  H   5.89478376665171     -1.71212474462384      0.04057741200886
  C   3.19698171937347     -1.98813897012656      0.02770329488944
  H   3.51437453624548     -3.01753500494356      0.03039871399809
  H   -1.35117629542230     -3.28358083427854      0.00749254086782
  H   -3.57657873174286     -2.68547119762520     -0.00426263377904
