26
Coordinates from ORCA-job ./opt_b97-3c_parallel
  N   5.69138589476967      0.52587007006486     -0.23525078297761
  C   4.53175995439282      0.49167592966750     -0.15054280635239
  C   3.12665244157950      0.38114114887093     -0.04530380272688
  C   2.39480446339784      1.55157397298424     -0.05561419830286
  C   1.02394856921114      1.74998132123669      0.03408681314803
  C   -0.02669556274602      0.84089715791607      0.08589206700359
  N   -1.24267682345026      1.41812807659250      0.14508406123662
  C   -2.30469005324076      0.63623938041887      0.07969871506783
  N   -3.57270404724534      1.06179008317632      0.12752061308942
  C   -4.30928862906062     -0.07598104741863      0.01113104577894
  N   -5.64101693917853      0.00825772667285      0.02329111747858
  H   -6.06891895337500      0.91240607366944      0.11579063216264
  H   -6.22465232473886     -0.80157272621832     -0.06464129391457
  C   -3.53790079716958     -1.27346291950271     -0.11305923090107
  C   -2.23101248378468     -0.84598089968371     -0.07058077359814
  C   -0.97585129458499     -1.43480717816227     -0.08936243582130
  C   0.16199064031309     -0.64368375901744      0.00816952122047
  N   1.32352041638509     -1.31841318646178      0.05053143379979
  C   2.57910507224747     -0.94946429246525      0.08693516928989
  N   3.46789402600602     -1.96592333562543      0.26602164673621
  H   4.44879406069051     -1.83058786394271      0.09909096384263
  H   3.10048915873329     -2.89542912338223      0.17199233173974
  H   -0.84169463267542     -2.50579696924844     -0.14769117723731
  H   -3.91555326716782     -2.27844751772639     -0.20873005784286
  H   0.69334113179943      2.77956369364912      0.04899193334982
  H   2.98311654319199      2.45590324593588     -0.14147704106917
