28
Coordinates from ORCA-job ./opt_b97-3c_parallel
  N   -1.58627572294411     -4.16646735037921      0.03022091775842
  C   -1.65326369426424     -3.00722211892905      0.01858666240392
  C   -1.78959808732148     -1.59127303975490      0.00493662561768
  C   -3.13828848371143     -1.19669751632807      0.01530907418159
  N   -3.73338605342732     -0.02665571192721     -0.00216219563958
  C   -3.11038349201416      1.15466764606933     -0.03786839033134
  N   -3.96244767959480      2.21329440896464     -0.10900846208610
  H   -3.64048839194947      3.14924727139898      0.05165187264611
  H   -4.93801683198109      2.02177680337076      0.03181649616245
  C   -1.73506552633266      1.45060332846244     -0.03022323483609
  C   -0.59859295987944      0.66041696908083     -0.00538435575147
  C   0.65242733807190      1.34364074373007      0.01117951691213
  C   0.70380929969125      2.75329458774031      0.02660811395499
  N   0.77760481473667      3.91387091262031      0.04181348497207
  C   1.86002824024161      0.64136937578436      0.00906986797673
  C   1.82883824027071     -0.83479045892962     -0.00912049134275
  N   3.05909453317131     -1.35122707629551     -0.01153240635039
  C   3.88312543571799     -0.25623239492099      0.00516440264065
  N   5.20307392484476     -0.44313339405540      0.00757497394425
  H   5.56133600387900     -1.38158568504825     -0.00399266179899
  H   5.84749515076156      0.32442064829891      0.01856065901180
  C   3.19306380418055      0.98849335694336      0.01868064964810
  H   3.62394793660330      1.97523203111874      0.03264602829157
  C   0.62016217875985     -1.50681731259246     -0.01706191346012
  C   -0.59294346311433     -0.82321222887949     -0.00910840603205
  H   0.63231102530503     -2.58632510642061     -0.02371248270832
  H   -1.52805311412033      2.51382309463665     -0.04781468374830
  H   -3.83669068178059     -2.02670799345897      0.04313739946300
