28
Coordinates from ORCA-job ./opt_b97-3c_parallel
  N   5.11439731636031      1.82825940411321      0.46517939060715
  C   4.15855210757836      1.18117805437545      0.32900654258160
  C   2.98895789317185      0.39836156130896      0.15882396753904
  C   3.12054159598472     -0.97071187147257      0.35973525622517
  N   2.27545125740267     -1.95326235310952      0.09436320216620
  C   0.98771275006642     -1.86983111593255     -0.20272887757916
  N   0.47931620556498     -3.03561825478939     -0.66881222417519
  H   1.13791984291318     -3.78160766725917     -0.81372740375737
  H   -0.36333751262433     -3.03832574018281     -1.21209105761872
  C   0.06192789407076     -0.77136395269742     -0.03376870749921
  C   -1.28674036619939     -1.05034430833213      0.12309229767983
  C   -2.25015496363123     -0.04827498666220      0.09121311939303
  C   -1.83724088680695      1.32175798499566     -0.21836136464787
  C   -3.01532614706820      2.12352657619238     -0.26623947715117
  C   -4.08756961889937      1.30416078338450      0.00567499993239
  C   -3.63565009281625     -0.03596042026778      0.24139510172205
  N   -4.46515662927375     -1.11261294620337      0.48772892926559
  H   -5.36880816134332     -0.87170453343678      0.86032757552601
  H   -4.04667851425682     -1.86204438248475      1.01405174560491
  H   -5.12298823639434      1.61153983597365      0.04475432415664
  H   -3.05226417375051      3.18263824125716     -0.46377376335372
  C   -0.51707805115408      1.61547008522986     -0.35932157410476
  C   0.49464129521544      0.61939050958795     -0.19932101815701
  C   1.79314851294945      1.08292041847963     -0.16401277917713
  H   1.91026437964617      2.14756004712788     -0.32034371901836
  H   -0.19946427068421      2.63478364684219     -0.54046528514554
  H   -1.59080200100046     -2.07675894366863      0.28948272049899
  H   4.08655175836781     -1.31045311182096      0.71894836595490
