22
Coordinates from ORCA-job ./opt_b97-3c_parallel
  N   4.21974005617226      2.16275834585107      0.41062387510611
  C   3.57240504934251      1.20694997117370      0.26552372712647
  C   2.76290034390269      0.07942565287849      0.09197617548456
  C   1.33568780222495      0.06653060950267      0.10830263559056
  C   0.91125255257641     -1.33950790869429     -0.11104459875500
  C   2.05626574611608     -2.09938193762393     -0.27120607959369
  C   3.17173245858319     -1.23702488200170     -0.14585954015724
  H   4.20355072172730     -1.54407442378299     -0.21960672308187
  H   2.09053336621510     -3.16095988704340     -0.44875111816176
  N   -0.36464350671079     -1.73696474761103     -0.07537353340971
  C   -1.30988755404907     -0.82200990971358      0.04815161020453
  N   -2.53200694636434     -1.31353955813970      0.32671884372561
  C   -3.67823154280509     -0.68652987445640      0.35447867446134
  C   -4.00686647898408      0.61670775006970     -0.06533856379414
  C   -3.12611499908633      1.62298141939703     -0.37275196371491
  N   -1.79876904099702      1.66351413385645     -0.18782795335345
  C   -0.97839054251036      0.66314011789686      0.02958802245591
  C   0.38864518935955      1.03373858438021      0.17774135793752
  H   0.62295789205937      2.08766724603215      0.23964500859407
  H   -3.54032351870937      2.56205176771767     -0.72269132743051
  H   -5.06305185581057      0.85143250436327     -0.13058204674209
  H   -4.50904609585251     -1.30040219885112      0.69131462590742
