25
Coordinates from ORCA-job ./opt_b97-3c_parallel
  N   -3.78770467623929     -2.80893359218475      0.00177642094531
  C   -3.23266937477542     -1.79047088953432      0.00086589146909
  C   -2.70182700394740     -0.46685648597700     -0.00016734578159
  C   -3.67304142978081      0.54473136955230      0.00106347956005
  C   -3.47523485811690      1.90695348226355     -0.00084871782081
  C   -2.26548029600242      2.60399542270283     -0.00376272938355
  N   -1.02444272087468      2.16130925819310     -0.00310161861597
  C   -0.54806642667581      0.92277668488183     -0.00159667420466
  C   0.87590232418595      0.85512720987899     -0.00006552635236
  C   1.61239785727364      2.06717560851484      0.00061472713106
  N   2.25388537064341      3.03252761537560      0.00113310894240
  C   1.50447390805939     -0.37624039076655      0.00011063683458
  C   0.64365742014023     -1.59133664352079     -0.00204479931443
  N   -0.67630928550685     -1.55556547555475     -0.00283786643693
  C   -1.29431513972645     -0.36939835707122     -0.00207571575903
  C   1.48096152452599     -2.71099084418510     -0.00264973181840
  C   2.79193202394439     -2.24641556464037     -0.00086416923780
  C   2.83263799401192     -0.81972265360285      0.00085366878078
  C   4.00992716487578     -0.05989580306758      0.00289868686576
  N   5.01261759223841      0.52774851678094      0.00446083342681
  H   3.67743675569037     -2.86276207321909     -0.00074194780430
  H   1.15607373525323     -3.73704405849528     -0.00410583242876
  H   -2.33907356456557      3.68636436144270     -0.00605957345630
  H   -4.36674153561910      2.52205732971307     -0.00018313848663
  H   -4.69749978540707      0.20072503232151      0.00323539174730
