26
Coordinates from ORCA-job ./opt_b97-3c_parallel
  N   -0.73585049835474     -3.69021774269263     -1.07536758305705
  C   -1.05757058379653     -2.64953586973273     -0.67298748252494
  C   -1.56703081284530     -1.38221324891618     -0.28496041307547
  C   -2.96119618000529     -1.36071252627135     -0.23774550026339
  N   -3.82342307599184     -0.41801453233678      0.10581655237351
  C   -3.55646963312620      0.87052138009070      0.23096789377832
  N   -4.55990692740383      1.62865543750112      0.71312326722577
  H   -5.41480047750348      1.17638116882294      0.98551875967487
  H   -4.44626995252491      2.60622899201002      0.90300010576835
  C   -2.37638920204143      1.55705275263110     -0.18279984039678
  C   -1.09314352196435      1.09034239834541     -0.31000008765339
  N   -0.20577082605985      2.11452050787865     -0.57624560947020
  C   1.05401338352587      1.85932158144461     -0.43837652540820
  N   2.06176831689739      2.79149828052582     -0.61638242317692
  C   3.15982734813451      2.15340866936757     -0.29600885166271
  C   2.95821783087482      0.76665785538667      0.11736460591383
  C   3.98251583669789     -0.10314537321154      0.50427248210546
  N   4.87925328424253     -0.77427643321140      0.81582542297310
  C   1.59848337813770      0.56300657255815      0.00611616969755
  C   0.70747227122216     -0.51173769615451      0.15951325125621
  C   1.20528754146809     -1.75097305824210      0.62838751129504
  N   1.65551109655966     -2.70933565366620      1.10232106271889
  C   -0.65432930837512     -0.29456362674352     -0.09426763483811
  H   4.12704069031735      2.63451556250703     -0.34026858626552
  H   -2.46410770234641      2.62363020967850     -0.34615721447436
  H   -3.43480870364209     -2.30685517547422     -0.47311228601326
