25
Coordinates from ORCA-job ./opt_b97-3c_parallel
  N   -5.22074999513547     -1.16822179896524     -0.00157112282856
  C   -4.06765659999229     -1.02873235986133     -0.00075813778037
  C   -2.66741398861788     -0.80313597742925     -0.00005546466753
  C   -1.87737442144469     -1.94368759730359      0.00106814508557
  C   -0.50703385607449     -2.08569564278046      0.00200944469285
  C   0.53094923726435     -1.15186687310349      0.00195237842306
  N   1.74039180995595     -1.73854403496874      0.00312959034321
  C   2.80273082932857     -0.95237555680644      0.00285764576373
  N   4.09037611392336     -1.31632913011350      0.00384781963703
  C   4.72433400037460     -0.11445076802283      0.00284622187815
  N   3.98073980667637      1.01558615012230      0.00127856457046
  C   2.72896261764766      0.52185625473317      0.00125063844618
  C   1.50217191044938      1.12940457255335      0.00011346626975
  C   0.34265126264680      0.32962134665678      0.00049204982752
  C   -0.90286884898468      1.00666869519671     -0.00030917149437
  C   -0.82110023841313      2.42744340742729     -0.00119195268608
  N   -0.86174266068948      3.58803719672953     -0.00160555938991
  C   -2.25855979410704      0.55993394721010     -0.00049683918285
  N   -3.23750664355937      1.49042752247379     -0.00116715602185
  H   -3.03016213007880      2.47273850070761     -0.00190202633648
  H   -4.20427689783652      1.21950579416398     -0.00167754151937
  H   1.43596850100072      2.20732643143090     -0.00096861037631
  H   5.80405518290506     -0.06358163335741      0.00329163769226
  H   -0.13940811050917     -3.10237324746003      0.00296688969778
  H   -2.43267145762798     -2.87168258803402      0.00127571505678
