27
Coordinates from ORCA-job ./opt_b97-3c_parallel
  N   -4.94728371985122     -2.04567916732561      0.02231019459770
  C   -4.16725433471976     -1.18223728796364      0.01607292026637
  C   -3.21023606156473     -0.16331012497534      0.00884655992934
  C   -1.80919907967584     -0.31528604196453     -0.00059151636210
  C   -1.29269498677229      1.05187163842525     -0.00379138006506
  N   -2.29050420168155      1.96322157200038      0.00357499452153
  C   -3.42152347998809      1.23816074986861      0.01053499252611
  H   -4.38614365573874      1.72434904317772      0.01691309326424
  C   0.07434626788654      1.27795784459669     -0.01257673968964
  C   0.55026818927096      2.61028436517471     -0.00917687442914
  N   0.98904884946189      3.68512390045612     -0.00289368896172
  C   0.99636824598024      0.17697667928103     -0.01971170961836
  C   2.34167155752404      0.50746193162641     -0.04023499545009
  C   3.53038308925433     -0.24075498463856     -0.03927630264897
  N   4.70152244018304      0.47483341527825     -0.11163903798428
  H   5.55505051255217      0.01477183497538      0.14879199717717
  H   4.67548793158917      1.45202675309663      0.11959601124665
  C   3.61732995743098     -1.63445434116079     -0.01879635976752
  C   2.58951993836433     -2.55494092684561     -0.00356265446221
  C   1.22073344156779     -2.35580495253649     -0.00251914241813
  C   0.44470144560441     -1.19205353033279     -0.00979139127364
  C   -0.94773240750011     -1.38218210839425     -0.00223652983085
  H   -1.33397452418817     -2.39300084050728      0.00449880384845
  H   0.63803146871176     -3.26898233810552      0.00774555090616
  H   2.90107500350826     -3.59143111612551      0.01041785206457
  H   4.62033030172879     -2.04675563705998     -0.02292811979778
  H   2.51971746876179      1.57622453187871     -0.05937114978879
