31
Coordinates from ORCA-job ./opt_b97-3c_parallel
  N   5.19476855746368      0.87594367081598     -0.67118551846096
  C   4.07737694502373      0.62974753452618     -0.45486458195296
  C   2.71600354566979      0.39326662138958     -0.17976565444865
  C   1.92621721933518      1.53538828052320     -0.05320301585606
  C   0.52203638331480      1.58169788815201      0.18519517782950
  C   -0.45047833977106      0.62558172717294      0.14880418619203
  C   -0.26009509676565     -0.81138901563153     -0.01133550598593
  C   -1.36736300439336     -1.61113030544902     -0.20661237458362
  C   -2.67221220964679     -1.10995283522161     -0.20253414215188
  C   -2.89455671528623      0.31905217426088      0.05321408648393
  C   -4.31094359112230      0.55889047143159      0.03229444669032
  C   -4.90673286591624     -0.64466596599684     -0.22096404313151
  C   -3.90828054323620     -1.68364474993751     -0.37054572703323
  H   -4.11260935645679     -2.72278151354688     -0.57322307015424
  H   -5.97083443192814     -0.81038723196963     -0.29959962863287
  H   -4.78958992218639      1.51088643635746      0.18736825373314
  C   -1.82314626334371      1.14121516434218      0.24025900889022
  C   -2.04679085045420      2.52321531276076      0.44942742635925
  N   -2.24275959451853      3.65492196202019      0.62282789305721
  H   -1.22859713639345     -2.67444547386622     -0.34195962999306
  C   1.02850140129414     -1.46392535190269      0.16384918202308
  C   0.96566139314419     -2.84612432919651      0.44229587622444
  N   0.98454888709249     -3.98625524839022      0.67852020343584
  C   2.33129853296074     -0.97595614655418      0.05343307412076
  N   3.37074732879170     -1.85248302573328      0.11308929260595
  H   3.19156402718273     -2.81605920419559      0.33549252983814
  H   4.29929317316235     -1.51919800998850      0.29808817958913
  H   0.16429427728125      2.59038983829290      0.34511909541098
  N   2.50734003007704      2.75587972594697     -0.14881564993203
  H   1.93922817233925      3.57823278022219     -0.22653526142182
  H   3.47918579098595      2.84958759376523     -0.38738338894491
