32
Coordinates from ORCA-job ./opt_b97-3c_parallel
  N   -5.84084589665621     -0.09118390789186     -0.09572943459462
  C   -4.67829703827032     -0.05638938931534     -0.04385806288328
  C   -3.27111427845888     -0.02427755855801      0.00776977101353
  C   -2.66352352155684      1.25810524942272      0.04432020728541
  N   -3.49800436779593      2.33769813951543      0.10595181100111
  H   -4.47790659361325      2.22820630503588     -0.08660859746897
  H   -3.11859751411694      3.24763047772304     -0.07966893495723
  C   -1.29959253059810      1.54438727052160      0.05195544903511
  C   -0.13783409997717      0.77758630217147      0.02892280148175
  C   -0.11234929945213     -0.69515589355403      0.03300780665995
  C   -1.22995095874592     -1.50362495146771      0.04746732188816
  C   -2.61769220965492     -1.27190579162449      0.03067267699553
  N   -3.38678524110632     -2.39317474779252      0.05905984735530
  H   -2.96084578190692     -3.28870406906191     -0.08855573253864
  H   -4.38069247922433     -2.34041675491137     -0.07509565071325
  H   -0.99494792617353     -2.55989356718715      0.06775692864663
  C   1.15774521411717     -1.37192200052352      0.02764748805418
  C   1.21054293715484     -2.78352193282025      0.02450920294878
  N   1.21136945670219     -3.94528978405025      0.01977819533722
  C   2.34644155596313     -0.66204845046059      0.01398700911138
  C   2.32300819281613      0.81143340699765      0.00492594357865
  C   3.64080914991965      1.20155424421513     -0.01148358147874
  C   4.37709811480151     -0.02551061568804     -0.01101964398358
  N   5.70454922193344     -0.15276102050131     -0.02388255602457
  H   6.10507122460253     -1.07410893483378     -0.01945990365815
  H   6.31298046247509      0.64337443965146     -0.03166402519547
  N   3.59720176180943     -1.13911075848821      0.00373458061586
  H   4.03730678922171      2.20274947543143     -0.02203156303007
  C   1.09504366641534      1.48393136914319      0.01296605416262
  C   1.11703374168568      2.89365730194269     -0.00234981489663
  N   1.16214281562275      4.05588221477810     -0.01807439719562
  H   -1.10366489163284      2.60914363088055      0.07643723494767
