22
Coordinates from ORCA-job ./opt_b97-3c_parallel
  N   -4.29199726489887     -2.14258891683358     -0.28987265591492
  C   -3.60336088676524     -1.21125066524895     -0.18235473544940
  C   -2.76469374016789     -0.10032190927902     -0.05176205767936
  C   -1.36946393425171     -0.08414111701321     -0.04185325597539
  C   -1.01409155863469      1.33207875743502      0.12462672481705
  N   -2.13087292515638      2.11668043367351      0.20538810384714
  C   -3.15216124599763      1.27354927907278      0.10211715588632
  H   -4.17268429662948      1.62770914778251      0.13498944825055
  C   0.29549829944803      1.72384722047171      0.15236356290726
  C   1.32744632513332      0.76919217529974      0.00358611952671
  N   2.53770941789528      1.28311562394979     -0.12826072005001
  C   3.71508357607716      0.66650923201357     -0.25662582383911
  N   4.10912023338508     -0.57086367845496     -0.01370455619656
  C   3.29709540619803     -1.60429401128192      0.20154915585372
  C   1.91813545023591     -1.69267841799635      0.09259611042035
  C   0.95978026444396     -0.68635240739635     -0.06111056344871
  C   -0.38047345326595     -1.05051332407878     -0.11619295226965
  H   -0.64387094792092     -2.09860715404566     -0.17754950159371
  H   1.52105295175566     -2.69833881539840      0.18109726087501
  H   3.81449512185010     -2.52597553240468      0.44555815340081
  H   4.51899261164725      1.34003468614419     -0.53238288967740
  H   0.57210814031894      2.76513842408907      0.21841627170928
