26
Coordinates from ORCA-job ./opt_b97-3c_parallel
  N   5.88276379687527      0.83625519405315      0.00015917205463
  C   4.74032255301795      0.63204501110156     -0.00008039200383
  C   3.33956540598493      0.39915431581903     -0.00014356045662
  C   2.51566427655429      1.54004274199840     -0.00051708668478
  N   1.21275099565079      1.64299207914352     -0.00043886309620
  C   0.23752974116134      0.73140989111347     -0.00019470872795
  C   -1.05044428134682      1.31356179932384     -0.00002977756497
  C   -1.18908808519019      2.72243991651177     -0.00001706199351
  N   -1.37555936908924      3.86684043590042     -0.00002934425220
  C   -2.18906316185039      0.50261790333202     -0.00001054172602
  C   -2.04323333384222     -0.96001313444890     -0.00019380878864
  N   -3.25351502605675     -1.51536701993409     -0.00024100109025
  C   -4.07204206508630     -0.41774717754992     -0.00009061354715
  N   -5.39025521153816     -0.54008253565387     -0.00009272987281
  H   -5.96823064780826      0.28121014444164      0.00001536229961
  H   -5.81023135192275     -1.45208581551880     -0.00020539489058
  N   -3.47728436143325      0.81817200193821      0.00005495869752
  C   -0.78786710743831     -1.54672418570794     -0.00025543941461
  C   0.35905061794593     -0.76117349064286     -0.00017609649003
  C   1.61743151275821     -1.42892071975693      0.00006880379560
  C   1.58734608177522     -2.85464773058397      0.00030027443404
  N   1.60338657134161     -4.01469070210902      0.00034195644756
  C   2.91472917085292     -0.92498945614060      0.00013764613149
  H   3.69824671966566     -1.66927900983847      0.00039438836924
  H   -0.71414542649593     -2.62381940815879     -0.00030339206823
  H   3.03490603221450      2.49310082936710     -0.00084859006133
