26
Coordinates from ORCA-job ./opt_b97-3c_parallel
  N   5.57350153427829      0.61858668029877      0.10425960307544
  C   4.41181952605998      0.56450813062962      0.12464261688817
  C   3.00800386055982      0.43422506050493      0.11864619822837
  C   2.23514541281171      1.59309042156126      0.37995635960679
  N   0.95631353398508      1.80480449185819      0.30800412807672
  C   -0.04563871800888      0.92599425306135      0.09015394900089
  C   0.10463787417762     -0.55459634252460      0.14584736778912
  N   1.20144488063189     -1.23553998505078      0.02141907361271
  C   2.47871636690429     -0.83972354455163     -0.16750602764078
  N   3.27093932095536     -1.83422530505253     -0.59089173343146
  H   4.25736928205484     -1.70440972461512     -0.73280574556694
  H   2.88522399683814     -2.76122010780117     -0.63563540720205
  C   -1.08452759806364     -1.38596720344028      0.29991091098314
  C   -0.91713065387696     -2.77729235014763      0.49001989151561
  N   -0.76362242928400     -3.91492753748476      0.65271905274044
  C   -2.31494848743291     -0.81808095515155      0.13784768405229
  N   -3.54043426816375     -1.44703187795902      0.14598338079380
  C   -4.40268090209647     -0.47197837142712     -0.07940096641174
  C   -3.79986292251482      0.83299736016763     -0.24578613503298
  C   -2.45612526217951      0.62476108323313     -0.10903475060583
  C   -1.31680400544476      1.46195301629707     -0.08873690225869
  C   -1.48969891040131      2.86228171772964     -0.18743326267500
  N   -1.72079516340338      3.99517778564706     -0.28465042998731
  H   -4.30970548125348      1.76401566715651     -0.42861487865429
  H   -5.46300252962030     -0.68100358038119     -0.12572496178168
  H   2.81721261588706      2.46988611144232      0.64727034328522
