28
Coordinates from ORCA-job ./opt_b97-3c_parallel
  N   -3.77899130224500     -3.18033847839319      0.47018757482620
  C   -3.24534092050649     -2.15377997279260      0.32672459922974
  C   -2.67050143160898     -0.89814791036438      0.14862310153679
  C   -3.40802595135055      0.30378898844124     -0.05604990235410
  N   -4.73909329032401      0.37432873383024     -0.09366229647136
  H   -5.21299319796527      1.24680857812087     -0.23385709568726
  H   -5.29931283106517     -0.45141168179859      0.02974000362853
  C   -2.51130366605837      1.40392910704145     -0.21382953316111
  C   -1.23202073491120      0.91030491203816     -0.10801731547976
  C   -1.30510950086572     -0.54626283978762      0.12152033033861
  C   -0.16151995984888     -1.29033103846647      0.22141904807905
  C   1.11192377160407     -0.69686584050282      0.09041362537024
  N   2.11570941214314     -1.55103763990272     -0.00277408371024
  C   3.43052517748802     -1.32666502382690     -0.09859259413974
  N   4.17825391861337     -0.28253445050287      0.29071413373938
  C   3.69059649008425      0.93251053413142      0.44758622145672
  C   2.41848112041657      1.45242792745994      0.22826399564164
  C   1.21267048666552      0.79022099379075      0.00793530184504
  C   0.02776153515499      1.53440247051978     -0.14801375521511
  C   0.07298176432751      2.93929599090239     -0.27912638413826
  N   0.07769937917069      4.09617815207899     -0.39007062464807
  H   2.35709193327217      2.53037879158981      0.31188548497432
  H   4.43094558208873      1.65472423942698      0.77857784345500
  N   4.13690619216930     -2.37210017778928     -0.58728987710324
  H   5.13585531654297     -2.35160160378163     -0.49300964276954
  H   3.67369475456268     -3.25710117124140     -0.68235020609710
  H   -0.19686269356147     -2.36533648691823      0.32149977595232
  H   -2.79725068669292      2.42975993199670     -0.37923428939868
