27
Coordinates from ORCA-job ./opt_b97-3c_parallel
  N   -6.03945772108684     -1.01660865013148     -0.00083192786238
  C   -4.89608792481633     -0.80431899335900     -0.00113828415568
  C   -3.52367693567329     -0.46937701531290     -0.00127207712970
  C   -2.61278139359297     -1.54554282676697     -0.00699323185382
  N   -1.31199787859932     -1.62253088822403     -0.00624668896993
  C   -0.38005097276654     -0.65013636479317     -0.00161186850971
  N   0.86044600298904     -1.12429050763103      0.00100089407029
  C   1.87196275993362     -0.25826843818304      0.00289653300567
  C   1.72152100758325      1.20686996559573      0.00086862972953
  N   2.91781331938715      1.84288121696184      0.00217894527974
  C   3.82487353681703      0.85634555301082      0.00516345972502
  N   5.13323119641727      1.09444670336195      0.00735755048186
  H   5.79815181182617      0.34184624088337      0.00927186471930
  H   5.46292262560830      2.04314464537072      0.00644316848733
  C   3.24192672918975     -0.47967577338096      0.00577466234711
  C   3.98178076946519     -1.66004152115033      0.00842896574182
  N   4.68423183217521     -2.58857785168383      0.01065453103934
  C   0.45489408603449      1.71229310532112     -0.00111286901547
  C   -0.64944594264843      0.82508570031597     -0.00107139418709
  C   -1.89716304470270      1.41930390637908      0.00163923067040
  C   -3.20664200039581      0.90580051418274      0.00288587924356
  N   -4.21474011126135      1.80689260700704      0.00762084013161
  H   -5.17563807406380      1.51404781077086      0.00794723723759
  H   -4.02869532699024      2.79115809689686      0.00994348209789
  H   -1.86126021870921      2.50408351456520      0.00334233293265
  H   0.28768981246430      2.78136623733477     -0.00152197332859
  H   -3.10023542848393     -2.51752861204134     -0.01226950412835
