30
Coordinates from ORCA-job ./opt_b97-3c_parallel
  N   -5.26031583861849     -0.81629883503089      0.00210300984950
  C   -4.11508748096912     -0.60830048422939      0.00105330518592
  C   -2.72148094421066     -0.39547629223339     -0.00009182374965
  C   -1.94636491637729     -1.55949783681696     -0.00003511814270
  C   -0.52760246122732     -1.64306718735001     -0.00101358936697
  C   0.46337898134113     -0.70708038273671     -0.00094542627694
  C   0.30167476486921      0.75518509812679     -0.00040257771668
  N   1.33546984464374      1.57978159157281      0.00040277217718
  C   2.58358635540474      1.09801447618796      0.00044099382720
  C   2.88238958385526     -0.35741067794129     -0.00049708372332
  C   4.29698618357429     -0.51353131794167     -0.00027991948982
  C   4.82573260681215      0.75519076826030      0.00089093276241
  C   3.78543821866587      1.75699220473600      0.00125837469890
  H   3.92800349312125      2.82441939917398      0.00210360578504
  H   5.88150206017024      0.98360397640380      0.00133958371520
  H   4.83353179994364     -1.44718017277535     -0.00086194305583
  C   1.82837651749797     -1.22277742926529     -0.00120307139505
  C   2.06129538687311     -2.61914411144438     -0.00177038223786
  N   2.25696197588246     -3.76380058564883     -0.00236552747027
  C   -0.96251187192060      1.43485910644610     -0.00123023847536
  C   -0.84437118361107      2.84830137064261     -0.00158786084595
  N   -0.94249972925870      4.00724813589359     -0.00187930978447
  C   -2.29071894854529      0.97403492674235     -0.00144651517951
  N   -3.28178562232336      1.89537285857164     -0.00375936680491
  H   -3.06445641720254      2.87628371484067     -0.00041693902509
  H   -4.24803707870767      1.62757758109301      0.00128765070479
  H   -0.17533773851573     -2.66733875190084     -0.00144643550001
  N   -2.56994524250825     -2.76146048634572      0.00088545558023
  H   -2.03997500999618     -3.61168023558592      0.00218340264166
  H   -3.57124980816278     -2.83944584834494      0.00206146421235
