29
Coordinates from ORCA-job ./opt_b97-3c_parallel
  N   -4.52614208959444     -2.48913801085526      0.05889293287169
  C   -3.76505077180402     -1.60531907258251      0.04711803410094
  C   -2.90110845164304     -0.51458218838313      0.03366711172133
  C   -3.31613459818023      0.85129459376260      0.02968475319624
  N   -4.59198665703364      1.24912347154415      0.03983708663761
  H   -4.83552523238333      2.22142290623014      0.03328982034874
  H   -5.33835884513051      0.57640636836345      0.04806132106270
  C   -2.17596955850378      1.70263869347608      0.01448113646458
  C   -1.05789871853198      0.89634809549012      0.00811729842025
  C   -1.49030243310775     -0.50939324602689      0.02012798918931
  C   -0.56167224554695     -1.51431476069192      0.01689139601525
  C   0.82269345417590     -1.24550167500955      0.00107025834206
  C   1.67629679541968     -2.33776401293045     -0.00420124698635
  C   3.07243076819413     -2.40790963379913     -0.02679404012086
  C   3.98919387571349     -1.39566632282953     -0.04763631788097
  C   3.71145963227284     -0.00370661706062     -0.03665102436951
  N   2.54698629439740      0.61005832056876     -0.01473750849583
  C   1.29028320329056      0.16768734581835     -0.01122378614936
  C   0.31712206098056      1.18636526920119     -0.00320584816683
  C   0.72712357531994      2.53980522718610     -0.00353521305554
  N   0.97342405783739      3.67479334833206      0.00086142430591
  N   4.78680850907365      0.84237030626956     -0.09545368375739
  H   5.69173152820328      0.51690295475781      0.19111740286542
  H   4.58284831041962      1.81165507661608      0.07885032384152
  H   5.03447530271433     -1.67982480098340     -0.08234608977075
  H   3.47983261595573     -3.41135388340715     -0.03259414062602
  H   1.17711789657024     -3.29945251215914      0.00715191771479
  H   -0.88562393064540     -2.54704793080731      0.02714373301934
  H   -2.19268256203360      2.78016988770947      0.00933588186149
