28
Coordinates from ORCA-job ./opt_b97-3c_parallel
  N   -6.16531847524314     -1.37998151772353     -0.00162227570673
  C   -5.05501511601467     -1.04196258080717     -0.00147167198768
  C   -3.69068065495535     -0.64970353911001     -0.00069087761835
  C   -2.73851800302015     -1.69737497569474      0.00000735361525
  N   -1.43796403418891     -1.65184123623670      0.00048035342126
  C   -0.57185712838686     -0.62834847954167      0.00075536005054
  C   0.77193739500406     -1.05108416962937      0.00087021657889
  C   1.06081694125665     -2.43809492199324      0.00045768380145
  N   1.37970441118190     -3.55312539360725      0.00000499222028
  C   1.81907213236128     -0.12219895684550      0.00153329063172
  C   1.50692324740698      1.31102405237520      0.00220225759038
  N   2.61432736766165      2.07190488665605      0.00293119590466
  C   3.63687435916010      1.19305155588869      0.00276463404820
  N   4.90161803253458      1.58488017336856      0.00333400038774
  H   5.11710210718848      2.56681991384474      0.00391826527856
  H   5.65334350919828      0.91698406914493      0.00321983449062
  C   3.20210493761058     -0.19600028069396      0.00192287753842
  C   4.08975205405264     -1.27255677408401      0.00160817780941
  N   4.93080467300255     -2.07659110565010      0.00158564785739
  C   0.19525835147170      1.74106971211682      0.00197824903725
  C   -0.86399435837903      0.83293886924656      0.00109702253995
  C   -2.18177077189645      1.35854376611361      0.00032257997668
  C   -2.31176168446475      2.77779872750788      0.00036345023172
  N   -2.45859924996305      3.92873447845025      0.00015836001164
  C   -3.41960921109572      0.70819190416188     -0.00058104063502
  H   -4.28082523117720      1.36109257235089     -0.00117726852125
  H   0.00452646539210      2.80361437761801      0.00235722423583
  H   -3.15027432789828     -2.70163622212679      0.00005908281118
