30
Coordinates from ORCA-job ./opt_b97-3c_parallel
  N   6.39220444063867      0.09883891440112      0.19104689093961
  C   5.23225939816433      0.11828578065365      0.16286439064164
  C   3.81351448051924      0.16042289495637      0.14137978653288
  C   3.21217260514352      1.36493553134536      0.55440134185082
  N   1.97131436831419      1.74491061013218      0.41048896859067
  C   0.86252160811018      1.08356667020709      0.09488841873386
  C   -0.26388214829428      1.90102392180618     -0.13731703386002
  C   -0.10756325588230      3.30474395751859     -0.21428508355342
  N   -0.07596346734829      4.46112947310810     -0.30307441262857
  C   -1.54803635987552      1.35702842717727     -0.18402896751690
  C   -1.72900310303964     -0.07720917272010      0.11376747238673
  C   -3.09340254994438     -0.31871177708871      0.16566093974483
  C   -3.82564095974785     -1.48425818950365      0.39800652903135
  N   -4.56618814615742     -2.36497677305400      0.57228404202677
  C   -3.75469333202522      0.94501306320327     -0.12436071136834
  N   -5.07474787823472      1.07039922408717     -0.16825539420430
  H   -5.67117165133710      0.27709379208678      0.00361795881032
  H   -5.51231185168538      1.95008136211554     -0.37522217889964
  C   -2.78837863590208      1.95021899426171     -0.33190289349032
  H   -2.98091815770315      2.99035197289872     -0.53371276196174
  C   -0.61075409016306     -0.91372706160572      0.24531638060315
  C   -0.82294279274265     -2.26600425427267      0.60647825461860
  N   -1.03734250914941     -3.33785106270271      0.99588060951172
  C   0.68618882195957     -0.39264260539232      0.07129223769248
  C   1.76718134017368     -1.23565459900556     -0.29370667596985
  C   1.46848555996017     -2.51350486455688     -0.84909328561404
  N   1.31912282552996     -3.52653401024550     -1.39488731016845
  C   3.14082390124074     -0.97356809658357     -0.29476222155510
  H   3.76087200958374     -1.78637679723201     -0.64424948201750
  H   3.87003948159321      2.11738869880511      0.97544677149380
