30
Coordinates from ORCA-job ./opt_b97-3c_parallel
  N   5.77744504834583      1.74315032095902     -0.06665947146125
  C   4.65939599107560      1.42406992794544     -0.05683533117965
  C   3.31611248497274      0.98164539927388     -0.04181041430458
  C   2.34904253052611      1.99329810073469     -0.11504272912291
  N   1.04131628922477      1.97721818652770     -0.07124782308285
  C   0.19493621927265      0.94074935815161     -0.01975734759376
  C   -1.14405076055547      1.32484914728428      0.04560490802496
  C   -2.17047869591742      0.40352142009004      0.02875658246941
  C   -1.85616090997977     -1.03338946523437     -0.07357640075995
  C   -3.04774399213416     -1.74668097471592     -0.10256503798970
  C   -4.09958083807962     -0.81015812753026     -0.02009711198311
  N   -5.40746393128131     -1.06645992644461     -0.01444476164462
  H   -6.07568899470278     -0.31739502336193      0.04821555061483
  H   -5.75853824332060     -2.00442357743830     -0.07051831386399
  C   -3.55936329144082      0.53020444209432      0.06069497267408
  C   -4.34508619596651      1.67594384305692      0.14836088730233
  N   -5.06149720200683      2.59289070227962      0.21970824368367
  H   -3.16109757798344     -2.81610296970491     -0.17211719091266
  C   -0.53062788521155     -1.43480922247582     -0.11291308520668
  C   0.52562689127872     -0.52574266445314     -0.05605836033327
  C   1.84000910517851     -1.05372807446492      0.01675251303523
  C   1.93634928588958     -2.46839612916718      0.06974924242032
  N   2.10355918091256     -3.61763552274158      0.11856562587679
  C   3.11526070831568     -0.41877242687737      0.04864074922144
  N   4.21398059562992     -1.19683636567892      0.16451251800800
  H   4.14854580464579     -2.19856718480534      0.16722146544730
  H   5.13125699426592     -0.78916389720399      0.13676144404355
  H   -0.31789673227831     -2.49258429298769     -0.16315039454516
  H   -1.34360588034489      2.38570886009163      0.07769321570867
  H   2.76634976456913      2.99225521689712     -0.20100391834643
