25
Coordinates from ORCA-job ./opt_b97-3c_parallel
  N   -6.01903096894453     -0.05586910581060     -0.00639832789164
  C   -4.85883032024941     -0.10651322106306     -0.00485678072459
  C   -3.44311800006885     -0.18380092639851     -0.00269615570328
  C   -2.73838717812552      1.01777489323413      0.00106709623122
  N   -1.43562736369710      1.24547900233580      0.00249536709008
  C   -0.42649909792123      0.38693029467411      0.00249961961566
  C   -0.50384717077898     -1.12222764607165      0.00189465114916
  N   -1.63284673791075     -1.86630009934059     -0.00198788914692
  C   -2.87796414150292     -1.48535739023571     -0.00450604811035
  H   -3.59511296588327     -2.30054360717963     -0.00811085372900
  C   0.66339957909789     -1.86204219627550      0.00467691945222
  C   1.91455551899172     -1.24858072044860      0.00696088126704
  C   3.21371394923234     -1.69697708535763      0.00957887816807
  C   4.00922310487304     -0.50494048537433      0.01001916357213
  N   5.33709657803114     -0.43281879557674      0.01222937987735
  H   5.77444433970342      0.47265468162828      0.01261980004894
  H   5.91532945380505     -1.25193046390222      0.01443942849944
  N   3.27702043462122      0.64441482834305      0.00776284329946
  C   2.01103733830712      0.22761786475985      0.00591538019003
  C   0.85091537393507      1.00160242640166      0.00359839373940
  C   0.95071531465320      2.41460107079856      0.00348092184586
  N   1.08929297748704      3.56570226972017      0.00359760841114
  H   3.56942891891675     -2.71375792043462      0.01096266701897
  H   0.56349894406656     -2.93778810801782      0.00431955642366
  H   -3.33814217813903      1.92176044279156      0.00260661120595
