32
Coordinates from ORCA-job ./opt_b97-3c_parallel
  N   6.15940135093958      0.50725370330435      0.57204481089820
  C   5.00207125895107      0.51514653318411      0.46633331237080
  C   3.59733568575200      0.47213031932432      0.30915149690624
  C   2.89967088899616      1.62917710592654      0.65817935712414
  N   1.65727835559373      1.97684779614417      0.43102007983875
  C   0.60539526726318      1.23958735472530      0.10737481806355
  C   -0.57213380368085      1.95739864536619     -0.19309426858390
  C   -0.51782115105147      3.36257215372931     -0.33617188653313
  N   -0.56517546481316      4.51264912431029     -0.48437723992912
  C   -1.81215543190183      1.31673970600412     -0.22323859545803
  C   -1.89169166389627     -0.11144914076576      0.15557654692546
  C   -3.23595524822352     -0.44986640541968      0.21259030243744
  C   -3.88340891180317     -1.65156585611918      0.50148379320988
  N   -4.55762654280170     -2.57566352285824      0.71815365047208
  C   -3.98167988093093      0.74388379315460     -0.15342331474532
  N   -5.30644577834064      0.77095852820440     -0.21187519251626
  H   -5.84492602861194     -0.05302262399100      0.00229942451368
  H   -5.80408123153238      1.60350412670784     -0.47128820362195
  C   -3.09036497863923      1.80634869158504     -0.41397932129710
  H   -3.35833064299230      2.81692046259712     -0.67180440998751
  C   -0.71785029818648     -0.85248984377474      0.34085118391404
  C   -0.81619389166470     -2.19569891591715      0.77129283818193
  N   -0.91738011225547     -3.26595164474294      1.20965888719776
  C   0.54222280151045     -0.24445083219023      0.13256405301451
  C   1.65267474700044     -1.03339093374934     -0.23854536238465
  C   1.38296482787434     -2.31152056996916     -0.78963666493650
  N   1.30487692604500     -3.33122803695021     -1.34181871122493
  C   3.05026412255422     -0.72343321842960     -0.23014863365599
  N   3.90814903480779     -1.64331596236893     -0.69951300665853
  H   3.59035506074065     -2.54536583534653     -1.00999813516470
  H   4.89964886424190     -1.48244464108889     -0.66474994474396
  H   3.49829947628112      2.40832815342193      1.11847798326932
