29
Coordinates from ORCA-job ./opt_b97-3c_parallel
  N   -3.72953054363111     -3.21952371134326     -0.16410911691716
  C   -3.20572313037987     -2.17874279660392     -0.11675714315595
  C   -2.64471677776337     -0.90608200256515     -0.05804722927307
  C   -3.40317298444299      0.30935748604438      0.00660444968271
  N   -4.73863815241228      0.35169056195492      0.01453301013583
  H   -5.27777347746383     -0.49516980327703     -0.03056892263406
  H   -5.23346997478305      1.22245714000592      0.05638389098056
  C   -2.52688894789273      1.42143525394768      0.06071093540389
  C   -1.23432353776604      0.92982266598158      0.02974281758920
  C   -1.28885711967671     -0.53928164557002     -0.04468498725416
  C   -0.13093524562276     -1.27570632845816     -0.06957678785311
  C   1.13742155562442     -0.67165745652311     -0.03399315504387
  N   2.14306315864756     -1.54608425971539     -0.00053827180443
  C   3.45718318847458     -1.39877301965306     -0.00284758615885
  N   4.14766245001159     -2.58434014585538      0.04177660660720
  H   5.09509183117339     -2.58405832990728      0.37349935968237
  H   3.59754984593429     -3.38983528705096      0.28491142941277
  C   4.22016984737142     -0.21561252711404     -0.11171007609437
  C   3.73713294080020      1.06606102694949     -0.12546449367735
  C   2.42145662518835      1.51781737008827     -0.06011642388350
  C   1.22353973512992      0.81621955625248     -0.00191442161045
  C   0.01562615716993      1.55920707219180      0.04965210675449
  C   0.04081814835240      2.97018978902350      0.10635657594331
  N   0.02375108296132      4.13153583577444      0.15426652988740
  H   2.31992271042456      2.59562689173137     -0.06548913468770
  H   4.48362272228315      1.84734892154912     -0.19660913891433
  H   5.29463915496039     -0.33700503136998     -0.18456093151742
  H   -0.15812683818577     -2.35514752910827     -0.09864830606937
  H   -2.82176306888699      2.45651061552007      0.11417544266946
