25
Coordinates from ORCA-job ./opt_b97-3c_parallel
  N   5.75248732074389      0.82084038604075      0.14756686174640
  C   4.60199516854300      0.67937320645360      0.08581029470420
  C   3.19244919168229      0.52865714350546      0.00541873558093
  C   2.45268448332362      1.70840696869732     -0.23056935584362
  N   1.16649068253229      1.92753761526111     -0.19280139063130
  C   0.12914263325608      1.09375817381089     -0.04765658236300
  N   -1.03400307628386      1.72712450920017      0.12153571400816
  C   -2.13973333275652      0.99025455726053      0.12324921578926
  C   -2.10150036881001     -0.48703802425839     -0.13629433172727
  N   -0.94313160627798     -1.13525312891100     -0.22484235038832
  C   0.16777788997595     -0.40771286787375     -0.12594287611448
  C   1.35417453908660     -1.17095258831383      0.01948013817277
  C   1.17509575973821     -2.58451293104164      0.09093967704858
  N   1.13647207248030     -3.74169147241700      0.16014436907669
  C   2.67928183763011     -0.75580287017003      0.12812933666279
  H   3.40062634659067     -1.54411359487165      0.28892714720885
  C   -3.39207927231826     -0.94891145815895     -0.19075307565747
  C   -4.23263386906511      0.18418228415184      0.05796181993595
  N   -5.56459483600288      0.13574698990823      0.09638877004603
  H   -6.05934875596960     -0.72437120592433     -0.05496243437923
  H   -6.11102771772346      0.95677459199574      0.28303209320801
  C   -3.45734543743964      1.36608626475516      0.25327828648185
  H   -3.83780634911700      2.35762802469432      0.43392282049313
  H   -3.71923236595102     -1.96123109962192     -0.36103802603904
  H   3.04813928263265      2.59449456302565     -0.42968907051984
