28
Coordinates from ORCA-job ./opt_b97-3c_parallel
  N   5.31384504184640      2.28100619719544     -0.10654234576351
  C   4.23445686083680      1.87290054038489      0.03576899740863
  C   2.94019165258380      1.32756649565400      0.17619720420856
  C   1.97652135807916      2.14396708565018      0.82760725560731
  N   0.68990877840386      2.06797954707066      0.83083460456455
  C   -0.11582193660569      1.08198444451006      0.37720145907744
  N   -1.34549546353418      1.44119823940047      0.07944050470610
  C   -2.27041456317352      0.48878893137021     -0.08758910571769
  C   -2.04111911930757     -0.91756439995855      0.28573565574453
  C   -3.29693861128148     -1.60806325961376      0.23679803748435
  C   -4.22498444065989     -0.71249768125092     -0.19607687297126
  C   -3.61417496406834      0.60703167250001     -0.39384637004171
  C   -4.30385561643766      1.76052264902026     -0.77113071123852
  N   -4.90647237657533      2.70292888220962     -1.09096460322305
  H   -5.27020687762495     -0.91053137979248     -0.37222611098073
  H   -3.44947325085718     -2.65059127096252      0.45820415742186
  C   -0.76493937754870     -1.31393764211600      0.56746243960689
  C   -0.52644021071804     -2.61779274200915      1.06083964260335
  N   -0.41068190719147     -3.66886664145180      1.53901880314529
  C   0.29867906268124     -0.34043753909307      0.35445308216692
  C   1.55064737081472     -0.76573537199750     -0.05138541045326
  C   1.72597819025404     -2.13267716713985     -0.39903175190217
  N   1.99007137107872     -3.19150871053082     -0.79598402525513
  C   2.74701789072233      0.02766719773728     -0.31160258648087
  N   3.74579032531863     -0.57154130606040     -0.97575851641234
  H   3.69751554220448     -1.54008262048965     -1.24095354670871
  H   4.62087128669949     -0.09451432592927     -1.11245170386549
  H   2.38558287735505      3.00882258369820      1.34169995657106
