25
Coordinates from ORCA-job ./opt_b97-3c_parallel
  N   5.52919876540163      1.03490588262410      0.00180934923195
  C   4.39850836416391      0.77445777948966      0.00168671532031
  C   3.00704147041658      0.48755779211379      0.00097994886806
  C   2.13975568078570      1.62175151220424      0.00061937552193
  N   0.84592794293862      1.67677748816345     -0.00007973865130
  C   -0.10234468079919      0.72278273006154     -0.00069370661952
  C   -1.40428504465018      1.23960331938554     -0.00135408311070
  C   -1.60514400898216      2.64267733565222     -0.00130777908074
  N   -1.88345199060246      3.76867870636752     -0.00121231431600
  C   -2.52442832804387      0.39263750147569     -0.00207922256296
  C   -2.31730652939272     -1.06342694303530     -0.00210867274084
  N   -3.50693796662375     -1.72818652245318     -0.00284921055976
  C   -4.42600646683395     -0.75781784787100     -0.00326650059749
  C   -3.88691725323004      0.56759279110173     -0.00282919830440
  H   -4.43630063566197      1.49381492080158     -0.00304344393564
  H   -5.47778642219259     -1.00886650894996     -0.00388646574310
  C   -1.05950254947201     -1.59647768452166     -0.00145382517607
  C   0.08040438655140     -0.76305136896511     -0.00072920064723
  C   1.33459157315761     -1.38807969022059     -0.00007293082293
  C   1.36305408322664     -2.81442566410744     -0.00014896547241
  N   1.44878120906151     -3.97122436190195     -0.00004006119597
  C   2.63591826589439     -0.83545471300990      0.00069350625541
  H   3.43933030305313     -1.55778462626424      0.00108585457669
  H   -0.94768022249097     -2.67081010176944     -0.00149526832503
  H   2.63652910352473      2.58643815342866      0.00097560978773
