23
Coordinates from ORCA-job ./opt_b97-3c_parallel
  N   4.25078693668612      2.18856890952763      0.00233409947409
  C   3.57123837115602      1.24452140429802      0.00193047425698
  C   2.74874799743580      0.11311689180218      0.00106891213463
  C   1.34571465256228      0.07285050198137      0.00082150489111
  C   1.01806554994037     -1.35423526763936     -0.00023306378451
  N   2.13962546903681     -2.12279383332216     -0.00057307674016
  C   3.15490517038932     -1.25201731810441      0.00020498648475
  H   4.17934002397972     -1.59539945203672      0.00013795435071
  C   -0.29195753312444     -1.76099929811621     -0.00076009963082
  C   -1.33966813786625     -0.82087193649730     -0.00029378081723
  C   -2.62752545505746     -1.33550652646859     -0.00098462728795
  C   -3.86872894091637     -0.69656913179494     -0.00079675035006
  C   -4.10954375142195      0.65515030354240      0.00021560286305
  C   -3.16814736538975      1.69815448005385      0.00126434915054
  N   -1.85678079949683      1.67857103955186      0.00149358090592
  C   -1.00324911874639      0.64140404189447      0.00084320207321
  C   0.34173505483464      1.02021377652724      0.00133794945011
  H   0.55756441192840      2.07882840228101      0.00214615424625
  H   -3.58653055179892      2.70057869148155      0.00199245499345
  H   -5.14659664324448      0.97026681345655      0.00022352203248
  H   -4.73346356860864     -1.34752856343143     -0.00151926881472
  H   -2.67629373400342     -2.41854320794942     -0.00181683073674
  H   -0.52142739287454     -2.81819130753761     -0.00156332984503
