24
Coordinates from ORCA-job ./opt_b97-3c_parallel
  N   -0.79033667862655     -3.91630466960981     -0.25956046845101
  C   -0.95787372024534     -2.76984608578430     -0.18385857792455
  C   -1.25396071071330     -1.38449733651311     -0.10592137064924
  C   -2.58584303952292     -1.05169679859560     -0.29832489715413
  N   -3.22377169540212      0.10712848021022     -0.15030265053664
  C   -2.63197098884645      1.26368522595751      0.08792702867656
  N   -3.41161437623463      2.24552513762380      0.58500758784970
  H   -4.39685163501042      2.07331463193084      0.67136401758344
  H   -3.07670850851332      3.19081941584137      0.55991264449824
  N   -1.36548647446713      1.68136979264073     -0.18879758098290
  C   -0.28128371909024      0.95659573238545     -0.20711618285149
  C   0.92727121704064      1.69612637916169     -0.47395215726902
  C   2.11875242484881      1.11216923742411     -0.23078696123458
  C   2.14011341795186     -0.28951220801879      0.23729148459605
  N   1.02853746125285     -1.05049634828623      0.32709656152166
  C   -0.13605899734261     -0.49822666171074      0.08771559185756
  C   3.44517487485413     -0.62043600292098      0.47610073777900
  C   4.26296367634742      0.53996608191669      0.16055096120425
  C   3.48582001189684      1.57529411971023     -0.26587772360136
  H   3.81266481109496      2.55571327670543     -0.57082680336855
  H   5.33852230131485      0.56212113561621      0.25365263773227
  H   3.80652801741709     -1.57241306032277      0.82908706534583
  H   0.81482249623044      2.73355540570452     -0.75817226887508
  H   -3.24002112683487     -1.87434884616648     -0.56218902534601
