23
Coordinates from ORCA-job ./opt_b97-3c_parallel
  N   -5.44189303228007     -0.65368037509685     -0.00227369799023
  C   -4.28555886997033     -0.55905149581854     -0.00098478060045
  C   -2.86636457636370     -0.47308711242286      0.00024808584410
  C   -2.17968431053274     -1.71540482265010      0.00002994727214
  N   -0.90200302742049     -1.97723407355718     -0.00158289041059
  C   0.16453896565467     -1.16143904537866     -0.00123680484041
  C   1.39001365180092     -1.83127326532119     -0.00506515558574
  C   2.56597586791119     -1.11262622307353     -0.00370628590099
  C   2.47508364499574      0.37758237982006      0.00308481452536
  N   3.69302644246882      0.93858623912072      0.00535715541100
  C   4.54446477335565     -0.11516286088704      0.00024495817722
  C   3.92436384274350     -1.38304957561174     -0.00530825261005
  H   4.41425706361338     -2.34238658567274     -0.00971635173902
  H   5.61053785449661      0.06544461108273      0.00073595295958
  N   1.33288885871472      1.04042167688113      0.00624033401953
  C   0.19239883620012      0.34067932412847      0.00374501779561
  C   -0.95801700620561      1.15139042353107      0.00377031369551
  C   -0.73505295185226      2.56020471489753      0.00629241994251
  N   -0.69959190058722      3.71948069728101      0.00785495328208
  C   -2.31496932207902      0.79358413246111      0.00159527518879
  H   -3.01049521796528      1.61999484031850      0.00147258322088
  H   1.36215065005724     -2.91179095794979     -0.00848384824991
  H   -2.81702466945613     -2.59330646628187      0.00020735079299
