28
Coordinates from ORCA-job ./opt_b97-3c_parallel
  N   -6.14199425327728     -0.02427775550796     -0.02178052206485
  C   -4.98316385742897     -0.12582214788598     -0.01534047173346
  C   -3.57209142882537     -0.17663300473311     -0.00777828249792
  C   -2.99235352717915     -1.46730272383962     -0.00335807269998
  N   -1.76146521061276     -1.89248994630996      0.00349272524923
  C   -0.60711961585756     -1.18642239653485      0.00867880374656
  C   0.54665088162920     -1.95499995549593      0.01542052653547
  C   1.79586775923074     -1.35029034302524      0.02119078674191
  C   1.83288315018752      0.13508757141351      0.01979017262375
  N   0.76443165060986      0.89684228650655      0.01352887934279
  C   -0.45679278372934      0.29640611753455      0.00789146248681
  C   -1.49295689472945      1.20707270143080      0.00165291569855
  C   -2.89480760108636      1.05955678055864     -0.00546995690918
  N   -3.61607550480630      2.20306118317572     -0.01018248603605
  H   -4.62037535974047      2.18810232741644     -0.01605576345140
  H   -3.16193329950005      3.09604746655260     -0.00959025265242
  H   -1.13325696711695      2.22905653417827      0.00251950087374
  C   3.18588774094426      0.52491713694519      0.02624491714762
  C   3.74192147595203      1.80227670185548      0.02766602487170
  N   4.28761055097160      2.83171595948236      0.02895282121661
  C   3.95430565031871     -0.67755095304451      0.03146604335705
  N   5.28768224073101     -0.70841233418885      0.03833552433271
  H   5.79195960779247     -1.57499395936342      0.04150626631814
  H   5.81776465953244      0.14618515385027      0.03982577824132
  C   3.09319996774674     -1.81500394704856      0.02830562835410
  H   3.41976858754172     -2.84267223056105      0.03106564487105
  H   0.43016494264812     -3.02952908095261      0.01597155694495
  H   -3.72745926144651     -2.26772488960888     -0.00632435180878
