26
Coordinates from ORCA-job ./opt_b97-3c_parallel
  N   -6.07255068946548     -0.02220401815291      0.60347562596352
  C   -4.93233864923007     -0.14448490388759      0.42661114699745
  C   -3.53582396159640     -0.29801434628153      0.22179790174444
  C   -3.00191140355185     -1.55957014968901      0.45483904452433
  N   -1.81159686893346     -2.02339011544165      0.10379924033185
  C   -0.68347168008763     -1.39921374365041     -0.15608156595203
  C   0.39698587872196     -2.27255826247510     -0.48831552839859
  C   1.67242389883566     -1.82315441946040     -0.39522927550827
  N   2.83552587521286     -2.55883785295579     -0.54655254933884
  C   3.80092454903876     -1.73310216092191     -0.22824617977723
  C   3.33447116260588     -0.40293159440915      0.15769985422774
  C   4.17084914449718      0.64733332559761      0.54946422797747
  N   4.92161729465952      1.47556062536190      0.86810202492452
  C   1.95898141625998     -0.45814902017989      0.03632729822740
  C   0.89984525223723      0.46988050697939      0.18682301043766
  C   1.20338550864025      1.79608051816792      0.57878622303707
  N   1.47682702761918      2.85100783696721      0.97646476664599
  C   -0.41273089938890      0.05271281795315     -0.01760906486658
  C   -1.45934806839754      0.98863135319194     -0.33649706717373
  C   -1.08110102745093      2.23182264186120     -0.91926051956390
  N   -0.84719925784457      3.22497291610324     -1.47165721921542
  C   -2.82594500400005      0.82365717435504     -0.24793061046266
  H   -3.42366417826947      1.67517326303191     -0.53922539965524
  H   4.83933952615185     -2.03098607089179     -0.25451825536973
  H   0.17202095561638     -3.31263811007287     -0.66957775900508
  H   -3.66431404529491     -2.30705156459708      0.87543360812119
