26
Coordinates from ORCA-job ./opt_b97-3c_parallel
  N   5.32053099739995      0.56402844893212     -0.03401699900979
  C   4.15894001232093      0.49022078333601     -0.01169461826059
  C   2.75823200686855      0.33243496933014      0.01022929454232
  C   1.98127403968783      1.54487049227084      0.01960818855156
  N   0.71507978397775      1.77500905317663      0.01739957220475
  C   -0.33586218482506      0.89422050645695      0.01013966104711
  C   -1.58174155333562      1.47742388952461     -0.00310114994336
  C   -2.76410486000230      0.72481571481617     -0.00765346950146
  C   -2.67861883491204     -0.74412653569810      0.00625363858946
  C   -4.02362277133000     -1.25649933125022      0.00134498116986
  C   -4.86131131486365     -0.17625085929309     -0.01438364560673
  C   -4.09792516636368      1.05166381575616     -0.01997276406993
  H   -4.51630388156488      2.04591296845659     -0.03146426189458
  H   -5.94047030712953     -0.22043999767109     -0.02147524010029
  H   -4.30227011965850     -2.29760171352112      0.00887447685620
  C   -1.46760719467931     -1.34769717554923      0.02105111387808
  C   -0.24607450627158     -0.58426516516445      0.01962389391830
  C   0.89649512239467     -1.33447389309192      0.02803536107591
  C   2.27857421315827     -0.97406042210863      0.02124733989721
  N   3.14738059595624     -2.01639340384573      0.05813620839659
  H   4.13344334190094     -1.85376766540073     -0.05351843481468
  H   2.82205171991259     -2.94768164675444     -0.11908083350691
  H   0.73276986050365     -2.40665009141736      0.04666178021366
  H   -1.38939704417486     -2.42834004087185      0.03166034013507
  H   -1.61580965750103      2.55797572679746     -0.00820021792674
  H   2.59850067493070      2.44009095578427      0.02267064625899
