29
Coordinates from ORCA-job ./opt_b97-3c_parallel
  N   6.18301659441464      0.11172541380126     -0.02300238380045
  C   5.02167071206273      0.17980526330136     -0.00513234867739
  C   3.60995034031773      0.19287651313012      0.01094776134172
  C   2.99600169496967      1.47288909205637      0.00696357964259
  N   1.75702286472663      1.86347044726965      0.00586794030745
  C   0.61668142677533      1.12946949172150      0.00670039876218
  C   -0.54632896576779      1.87545778220493      0.00040075612640
  C   -1.81054356671430      1.28347697940052     -0.00215591686657
  C   -1.91368765145055     -0.18503286091556      0.00211405831888
  C   -3.29010699413374     -0.51591515176119     -0.00238188639035
  C   -3.87750682699680     -1.77775543884136     -0.00132817576529
  N   -4.40852887267359     -2.81617541687986     -0.00082317580053
  C   -4.00554490077453      0.71114964516700     -0.00899557877545
  N   -5.33935137044778      0.81271539781338     -0.01592916740556
  H   -5.79618586395837      1.70459698777325     -0.01391683479593
  H   -5.91510560910377     -0.01076451644059     -0.01063023117867
  C   -3.08740035897726      1.80552179655937     -0.00873354543803
  H   -3.36205986841549      2.84832943680760     -0.01326477315340
  C   -0.78166381457122     -0.94752357452394      0.01004112834581
  C   0.50900359312487     -0.35932865297273      0.01239636838253
  C   1.56732628346437     -1.24060559167153      0.02521470965843
  C   2.96788382455330     -1.05649966392339      0.02625616983258
  N   3.72000607099961     -2.18719532924929      0.07357705559938
  H   4.71662832924651     -2.13608062307863     -0.04659856845429
  H   3.29306349971186     -3.07882664293898     -0.09199314033984
  H   1.27021227092477     -2.28404738913808      0.04063338668807
  H   -0.85905744781242     -2.02734067600728      0.01476720692166
  H   -0.43788162838406      2.95055373605957     -0.00297157787035
  H   3.71187279258961      2.29072329157653     -0.00010676481556
