22
Coordinates from ORCA-job ./opt_b97-3c_parallel
  N   -4.42562036294436     -2.15174879727179      0.66840236672881
  C   -3.65406768896163     -1.31145254128316      0.44673902699008
  C   -2.75357576734513     -0.27513899073647      0.18159716330219
  C   -1.37521259808842     -0.34014727695910      0.01942500540106
  C   -0.96840206645005      1.06101819923827     -0.23995577365668
  N   -2.04324001826775      1.89777865082428     -0.27715307481904
  C   -3.08365434293684      1.11558960774716     -0.01986109751716
  H   -4.08483494545771      1.52047663413100      0.02265884183544
  C   0.36729666662479      1.36292473058752     -0.27667650093417
  C   0.85151318044340      2.68684003172829     -0.38071368905663
  N   1.25146927314565      3.76949045259640     -0.48741676429404
  C   1.28569632092675      0.27435506946643     -0.03990155418770
  N   2.48602638455690      0.60408082994044      0.34609303853811
  C   3.52972650116530     -0.18864491589522      0.61832144184227
  C   3.75850213449893     -1.46274007944290      0.16306188781318
  C   2.81325316957919     -2.26975942711649     -0.50051429638675
  N   1.51439510463886     -2.15512083686161     -0.52968683870235
  C   0.74038642383218     -1.12776858444199     -0.14170567438737
  N   -0.54842059018078     -1.38610844936165     -0.01629242134108
  H   3.19320551926358     -3.15948650771222     -0.99429963867103
  H   4.75418465809720     -1.87000035876994      0.29035512578790
  H   4.32146963695984      0.31035503119290      1.16531077521460
