20
Coordinates from ORCA-job ./opt_b97-3c_parallel
  N   -5.47724800230693     -0.05673326072972     -0.15576132702426
  C   -4.31778557549036     -0.03125685729317     -0.10801155183584
  C   -2.90159556043163     -0.00489417143544     -0.05342104332443
  C   -2.25978249345162      1.20540292105690     -0.33864479612223
  N   -1.00901921317676      1.53618615398866     -0.09179574430666
  C   0.04792199570591      0.77459515514523      0.12331024558631
  C   1.25142549204979      1.42729624432518      0.44611893385230
  C   2.40556379052369      0.70710039425747      0.29385967398398
  N   3.70208724853234      1.06481784813596      0.35366760459077
  C   4.31940491886840     -0.02385821511690     -0.14652028630670
  N   3.56137779927951     -1.08791029785141     -0.53975548525312
  C   2.32702345320567     -0.68224598871478     -0.25468973490420
  N   1.20148490637787     -1.37998290288595     -0.37012850324940
  C   0.08045404869456     -0.73685007101503     -0.08003086042595
  N   -0.97751291075714     -1.50478035265611      0.18119485415425
  C   -2.23888226431374     -1.19274566307837      0.32073147594810
  H   -2.86461898422485     -1.99522601785867      0.69789769953822
  H   5.39604304997340     -0.05861501951010     -0.23423238761428
  H   1.24040368900008      2.48779493782692      0.65365337005552
  H   -2.87852837245821      2.01837609420928     -0.70167140454242
