23
Coordinates from ORCA-job ./opt_b97-3c_parallel
  N   -1.08659678946907     -3.93300069922016      0.10660072743081
  C   -1.21377573228805     -2.77837315753666      0.12926437561199
  C   -1.37195278011946     -1.36995064938259      0.14153137270112
  C   -2.66831935055505     -0.93317173793950      0.40444763506228
  N   -3.20594346250462      0.27097852533887      0.28461081347172
  C   -2.50378479583816      1.36075427020852     -0.00670670960930
  N   -3.17724350296690      2.37523169745922     -0.57438053915635
  H   -2.75485086444048      3.28576760014586     -0.59749147657290
  H   -4.16998310620603      2.28662246718921     -0.69553840562026
  N   -1.22494886711523      1.66234309237370      0.30963174438664
  C   -0.19586001975993      0.86720033966796      0.33551405258650
  N   0.96494176113654      1.51704017099652      0.68794376747625
  C   2.07844107888177      0.92222172370302      0.39631055190940
  N   3.33225245436621      1.46411096691635      0.60775147935971
  C   4.15735171350494      0.54809140588254      0.13610652274257
  C   3.52339052590544     -0.63476989249935     -0.40124708463239
  C   2.18278546089401     -0.42360061010819     -0.23955210590541
  C   1.00719775257827     -1.15994447684260     -0.38873645191159
  C   -0.19342857181540     -0.57730850490797     -0.04783640587381
  H   1.03841480331358     -2.19890673431258     -0.68751692027588
  H   4.02309437095185     -1.49572622092071     -0.81424008921547
  H   5.22681726094446      0.71276611613031      0.17225037641087
  H   -3.37502157459853     -1.70233986764127      0.69441122252317
