25
Coordinates from ORCA-job ./opt_b97-3c_parallel
  N   5.18445280711003      1.54289489257543     -0.74793982965902
  C   4.33551356192064      0.78140536023586     -0.51566919338534
  C   3.32497981649683     -0.14035535863830     -0.23659759593149
  C   1.96896797029045      0.09461075668477     -0.06679688510169
  C   1.39611703514897     -1.22017713493355      0.21663804751343
  N   2.37121494124175     -2.21119640937878      0.21183157995012
  C   3.48783634094019     -1.57848223105146     -0.05059348481997
  H   4.43205256857215     -2.10092537759596     -0.11694256706790
  C   0.06816982569888     -1.37006452792528      0.43273401345206
  C   -0.79789375441225     -0.23515581847953      0.30442486192755
  C   -2.15297979028765     -0.48305746035509      0.18292115649323
  C   -2.62002319771453     -1.81720998113333      0.29248690317023
  N   -3.08917150346658     -2.87824261969397      0.35754049967145
  C   -3.19200141532758      0.48849854144277     -0.18041574427512
  N   -3.18510781087617      1.77162526434430      0.06407914000284
  C   -2.13334623055231      2.49279231503009      0.49150876454696
  N   -0.85348055073483      2.28499326558566      0.44943293172616
  C   -0.19612039346965      1.12278344535531      0.19576478350726
  C   1.16210996383940      1.23021136993535     -0.02478450466093
  H   1.58330167149316      2.22289091431611     -0.09039628573164
  H   -2.41959057483715      3.47564361075539      0.85197893116813
  N   -4.29082324004930     -0.00279393875180     -0.78248038110699
  H   -5.05376581401168      0.63114197280952     -0.94158905719378
  H   -4.44447794133159     -0.98589412588892     -0.91389167353467
  H   -0.34198874848116     -2.35338366254461      0.60979797733910
