29
Coordinates from ORCA-job ./opt_b97-3c_parallel
  N   -6.01821851352924     -0.75837016670949      0.01151701794255
  C   -4.85693890063328     -0.72219335398684      0.05628648821365
  C   -3.44772744822056     -0.62060120450137      0.09416574002312
  C   -2.75303432927491     -1.79657712221289      0.42040301907797
  N   -1.49113492220210     -2.11366096088735      0.35033270458151
  C   -0.41662873706327     -1.35044101173537      0.11452580136571
  N   0.68759852015098     -2.04871543763550     -0.11263411745510
  C   1.86215322036830     -1.41669335759198     -0.13478837494838
  C   2.00570448388102      0.02203197904701      0.19823334666205
  C   3.37337273467386      0.32075139970484      0.20584390810174
  C   4.01754692717390      1.53002615568811      0.45565007038908
  N   4.61396421635673      2.51156408802820      0.65446165741213
  C   4.05452522629667     -0.89188712173303     -0.15112183139365
  N   5.37604103457320     -0.98913759752069     -0.26238396481019
  H   5.96431172863624     -0.19052330471529     -0.09289804328251
  H   5.81881657039519     -1.85220026511650     -0.51869039029028
  C   3.11647036204344     -1.94368497281019     -0.35692190444583
  H   3.34901997432715     -2.96482556705248     -0.60806776884148
  C   0.86546344772466      0.76716135379714      0.35015589068365
  C   -0.38794588376058      0.15083714903559      0.19554653877770
  C   -1.51206187279155      0.97728544197554      0.00184354512965
  C   -1.25340838156360      2.36940744023453     -0.09716823473955
  N   -1.12389764560688      3.51970300117473     -0.19807350974123
  C   -2.89703148818781      0.65697173522054     -0.15975562578681
  N   -3.73881496557919      1.64641286974676     -0.51778522639111
  H   -4.73023712099106      1.48385522837043     -0.54180817260652
  H   -3.42260863328045      2.59650831807778     -0.59915036986228
  H   0.93178825223230      1.83521114967256      0.50247934453820
  H   -3.39428265534909     -2.61782768706481      0.72884264929619
