28
Coordinates from ORCA-job ./opt_b97-3c_parallel
  N   6.01483684110072      1.07664781559698      0.02013497130268
  C   4.87625728107979      0.84014000099036      0.00965911668910
  C   3.50965249045535      0.47930704309135     -0.00267788493720
  C   2.58618206359692      1.53442959664343     -0.12137814546267
  N   1.28061206686614      1.59007182789102     -0.12254250318955
  C   0.37138453930866      0.60443976296384     -0.05660739606642
  N   -0.87941698634170      1.05190955943183     -0.01375513702730
  C   -1.88081229430994      0.17884295413161     -0.01096394929696
  C   -1.71147899671566     -1.29198635760307     -0.09280619639202
  C   -2.97560904677592     -1.88578385704068     -0.10095977490035
  C   -3.91824960336269     -0.85371820981439     -0.01696539665371
  N   -5.24935079226831     -0.96033560412811      0.01844788054948
  H   -5.82461662232602     -0.13689893365317      0.06261738924638
  H   -5.70555592859190     -1.85053853699298     -0.04939143253984
  C   -3.24474593961964      0.43609530971004      0.04017020784765
  C   -3.93259697413584      1.64460720328127      0.12647640510163
  N   -4.61042954327156      2.58826650536168      0.21011617595413
  H   -3.19353738045253     -2.94058799503722     -0.14544696841418
  C   -0.42396324208195     -1.76333076666140     -0.11020080816691
  C   0.66436179345477     -0.86857507464720     -0.06463927759866
  C   1.92337562404330     -1.43927799539791      0.01692253095031
  C   3.21687154794397     -0.90053632137888      0.07886342698783
  N   4.24334199838727     -1.77714706728059      0.23502466998974
  H   4.08271348531961     -2.75906858917209      0.11370472544250
  H   5.19341654390122     -1.46310245898315      0.14143640526883
  H   1.90632074413305     -2.52460502881243      0.04741959648779
  H   -0.22319520979541     -2.82773188639686     -0.13243296828223
  H   3.05608305465832      2.51010435460678     -0.21451239639008
