23
Coordinates from ORCA-job ./opt_b97-3c_parallel
  N   -4.88089211561484     -1.76637195539029      1.04174324753077
  C   -4.09338905801122     -0.99556824084213      0.67171594217941
  C   -3.16833284300976     -0.05016265116240      0.21910944023542
  C   -1.78732460200928     -0.14435888348689      0.13359716875879
  C   -1.35622966895138      1.16884356816258     -0.44386915129793
  N   -2.42311964907538      1.96573481248070     -0.72179328540862
  C   -3.47129848294773      1.25554471945409     -0.31802650195769
  H   -4.47154030118181      1.65826816679513     -0.39989350530554
  N   -0.09895349150338      1.47203745966548     -0.60250733280693
  C   0.78281116703207      0.51166645313943     -0.22661014711018
  C   2.06880886576241      0.95167181341345      0.06647480806666
  C   2.35656862246918      2.33717410052216     -0.04105941813642
  N   2.70617339803548      3.44168766661644     -0.10530510197095
  C   3.13193532364885      0.16596018995039      0.62587121116721
  N   3.33321642874668     -1.10802980672732      0.57487080968362
  C   2.46170578102218     -1.96859608657623     -0.03490315048034
  N   3.04336652391333     -3.02829063060312     -0.61137585785616
  H   4.02499646470457     -3.18543160220486     -0.47015637718647
  H   2.46521982247847     -3.78496378124234     -0.93151473103190
  N   1.14820798769550     -1.94154711000942      0.01377931138044
  C   0.34205239421147     -0.88833053528899      0.07261399460963
  N   -0.94221442672348     -1.14746474566401      0.32768235642865
  H   3.89715936270801      0.73379577599862      1.14569302200843
