28
Coordinates from ORCA-job ./opt_b97-3c_parallel
  N   -6.02245790180912     -0.65094063414233      0.07915530916034
  C   -4.86016766111686     -0.65553250943062      0.06961081390634
  C   -3.44653221847436     -0.60262625038018      0.05229611188912
  C   -2.79617861421378     -1.83790267760134      0.13750297888021
  N   -1.53507355827097     -2.19226516158542      0.07447674597863
  C   -0.44050459791394     -1.42592073980242      0.00355556612703
  C   0.75707772510180     -2.14396429304245     -0.10488901495701
  C   1.95775558044648     -1.47357747312290     -0.09965040810522
  N   3.21243890593941     -1.95032467973106     -0.15918759603400
  C   3.99664576994477     -0.85346474495770     -0.05716393096252
  N   5.31842102937912     -0.94382940533911     -0.07779787686543
  H   5.89732135476140     -0.12582799412923      0.00028766455668
  H   5.75027975681486     -1.84656701778935     -0.17224276006860
  C   3.25904400719376      0.38864586178710      0.07457201958424
  C   3.84839610931132      1.64538052895027      0.19561254421319
  N   4.43018050439740      2.64899470422892      0.29228515306041
  C   1.92620698177766     -0.00256425675404      0.04073323967978
  N   0.80963485473421      0.70965462646075      0.10481585424695
  C   -0.35995296970211      0.06452980663225      0.06090212647515
  C   -1.46587304242775      0.94223835728040     -0.00320516059084
  C   -1.12393790357591      2.32083996795808     -0.04352971727998
  N   -1.04867858215738      3.47937501952675     -0.09149942012929
  C   -2.86555468155103      0.69189204656170     -0.04187953794120
  N   -3.69488392155269      1.74304058833258     -0.15206301397159
  H   -4.69144313876392      1.61537309932890     -0.14931230071853
  H   -3.33793264865720      2.68278468795529     -0.17952057771566
  H   0.70143864898709     -3.22091774078166     -0.15364333872890
  H   -3.47250196510174     -2.68055634571193      0.24624117551183
