27
Coordinates from ORCA-job ./opt_b97-3c_parallel
  N   -1.44563089687538     -3.90798579044084      0.22488207041135
  C   -1.56495601783002     -2.75306488175545      0.17456755332376
  C   -1.72455631308991     -1.34470052823403      0.10614663881765
  C   -3.04415951831435     -0.92098371102492      0.26392342133224
  N   -3.60157742723744      0.27127559740879      0.14022962391282
  C   -2.92428699948548      1.39391500075985     -0.09543269754673
  N   -1.63117231637775      1.71523092213711      0.08006036463339
  C   -0.57338011536888      0.93008859745184      0.13440672021607
  C   0.64783087703662      1.61317654291324      0.33266807280875
  C   1.85782467960248      0.98246338752090      0.19527423641144
  C   1.87978190590121     -0.46582451305583     -0.14271085188233
  C   3.18799382925938     -0.84338184054334     -0.26753034805239
  C   3.99920689938028      0.33172911446725     -0.01560785561433
  N   5.34303171561497      0.31102679242478     -0.03598660578830
  H   5.83926186353073     -0.50617377570740     -0.33758930902807
  H   5.87277872611338      1.15712011433517      0.06161393684790
  C   3.18337098147492      1.43263486612402      0.26242877436999
  H   3.51485311410729      2.43380157618452      0.48399648984371
  H   3.56913132167326     -1.82566755856069     -0.49901301687340
  C   0.67500761620850     -1.17547935562881     -0.23324399585968
  C   -0.54150983071889     -0.55965060027858     -0.05631956252040
  H   0.70867467435706     -2.24547852354643     -0.38658913056851
  H   0.58025222215084      2.67837000297548      0.50197438038832
  N   -3.68513340143719      2.43912279968279     -0.51381669274087
  H   -3.28865562761385      3.35872080079093     -0.45194209314892
  H   -4.68202849826644      2.33917127841014     -0.45123879521378
  H   -3.75368867419537     -1.70842275901058      0.49523365062032
