27
Coordinates from ORCA-job ./opt_b97-3c_parallel
  N   5.02165873614431      0.66911632712320     -0.99784761795209
  C   3.95183390220908      0.97982711819447     -0.66656874293624
  C   2.68953598102420      1.42937737580211     -0.26667572599922
  C   2.38006972350859      2.79883301248571      0.13581142587801
  N   1.12725800849801      2.97506507436601      0.48343145495940
  C   0.53761486171648      1.74236551134018      0.31561477641566
  C   1.49638628832210      0.74434493690963     -0.13987607520301
  C   1.10402868078147     -0.61104234658067     -0.21023835301835
  C   2.07318942519144     -1.59963015753432     -0.50645773419392
  N   2.87325334770568     -2.37681741534053     -0.82442545256904
  C   -0.22627366769585     -0.95091155201118      0.00544929736375
  C   -0.58825591093675     -2.30108760999024      0.38876799476989
  C   0.35241340695744     -3.05944701305900      1.13381781845933
  N   1.05009028320341     -3.68965184148739      1.81467508354874
  C   -1.80150430596748     -2.91941660476031      0.18912045742692
  N   -2.80198562361572     -2.51092378908848     -0.60203816503647
  C   -3.08789600792990     -1.28935842118720     -0.90610086649300
  C   -2.53899180101941     -0.07129183141298     -0.35684097115746
  C   -3.44331951288094      1.00984866245869     -0.52416519143603
  N   -4.27616037000736      1.77480499041559     -0.78688286954577
  C   -1.23797661495306      0.11123430726706      0.09766405716765
  C   -0.78840976880719      1.43783742542649      0.47796189368706
  C   -1.66179943682563      2.42032785326444      0.99763200318344
  N   -2.31987446828756      3.21865507584309      1.52197202230375
  H   -3.90542953670615     -1.15450674244217     -1.60604702531393
  H   -1.93983875207769     -3.90237679878716      0.62082195864695
  H   3.09552289125399      3.60807276457925      0.15653043013949
