30
Coordinates from ORCA-job ./opt_b97-3c_parallel
  N   -5.65040905486389     -1.30977853945304     -0.69630767154394
  C   -4.51531464429343     -1.11809620841769     -0.53814069119893
  C   -3.14671581551609     -0.83395676990087     -0.31892447807892
  C   -2.24956110792953     -1.85504947636982     -0.58776525524888
  N   -0.97077324523312     -1.97097186184068     -0.28569539685933
  C   -0.07104998000639     -1.04992445807713     -0.02374397694636
  C   1.22729034448927     -1.54223256329866      0.31945670612226
  C   1.39309557161724     -2.91797086185284      0.59787414863106
  N   1.55134404488516     -4.03897295868334      0.84955282464355
  C   2.32223431524628     -0.70178820775738      0.21490890081283
  C   2.13521240075744      0.68447817285152     -0.26461842746022
  C   3.38960264861283      1.20112079349350     -0.39918311754065
  C   4.26830026331419      0.12864422155783      0.01741432861022
  N   3.61972442662540     -0.99976397949488      0.37917663975955
  N   5.59425210276782      0.18626663954491      0.06179812178123
  H   6.09932369787477      1.00962308826333     -0.20820512013117
  H   6.10860675329703     -0.62192749383944      0.36852153858623
  H   3.67217102762975      2.18898763927482     -0.72226518996008
  C   0.83275948763574      1.21636782289547     -0.42522424970348
  C   0.72606827116377      2.55722173503229     -0.85512135826144
  N   0.72644600132148      3.63833744633101     -1.28003056794861
  C   -0.27781188626397      0.41563946241565     -0.15360996810540
  C   -1.52125097845641      1.00334122736976      0.22506733824841
  C   -1.46998578066918      2.30841284814651      0.76984323678077
  N   -1.54942059562124      3.34216779764751      1.29635482591738
  C   -2.83020152007453      0.45893549939954      0.20552932503010
  N   -3.85369259110799      1.20861643178422      0.64810187019495
  H   -3.71323439647522      2.16006408245571      0.94126220315940
  H   -4.79690411437690      0.86538188048544      0.60611951751293
  H   -2.67351492146198     -2.74481882458601     -1.04097646049445
