29
Coordinates from ORCA-job ./opt_b97-3c_parallel
  N   -5.79179635567251     -1.65359979984755      0.00415425325010
  C   -4.66381389315815     -1.37198961286450      0.00364912965883
  C   -3.30765142836716     -0.97099430836987      0.00268476291860
  C   -2.36976442500742     -2.01577071178488      0.00635317826077
  N   -1.06154397490077     -2.04465224633435      0.00483594168387
  C   -0.18899282228931     -1.02588936730822      0.00144524919789
  C   1.15148787101882     -1.41552808268304     -0.00076996265806
  C   2.15060892281313     -0.46859679031640     -0.00238441063222
  C   1.75779472951355      0.96229663252571     -0.00092482268831
  N   0.48918384976932      1.35769058547549      0.00031105278614
  C   -0.48303945954980      0.43943485962013      0.00076915255512
  C   -1.77024751997012      1.01559874209051     -0.00153520742031
  C   -1.77719266490889      2.43733112888176     -0.00439796913114
  N   -1.98571422038373      3.58061523974118     -0.00666869641284
  C   -3.06818341097454      0.42647676626592     -0.00163720212199
  N   -4.13272103221317      1.24895019408097     -0.00559598789448
  H   -5.06721340702596      0.88053273168894     -0.00476633379740
  H   -4.01608070940664      2.24728394579252     -0.00742429628015
  C   2.90355541271207      1.74016770806518     -0.00141795023977
  C   4.00359916362451      0.85457039785803     -0.00327134565350
  N   5.29284934209037      1.18229152924892     -0.00431862739186
  H   6.00302272232694      0.46964701892708     -0.00560381117656
  H   5.59015908933064      2.14066022593373     -0.00377791244866
  C   3.54203178233361     -0.51935890887354     -0.00386297851259
  C   4.39251075217863     -1.62157299259076     -0.00531308293931
  N   5.15675600417951     -2.50184033115108     -0.00653877253873
  H   2.94671011474573      2.81605120254204     -0.00068740063081
  H   1.36165479030066     -2.47525230791746     -0.00042941187759
  H   -2.82151181720927     -3.00337884529646      0.01047083843494
