27
Coordinates from ORCA-job ./opt_b97-3c_parallel
  N   -6.42251250429861     -1.00243853613540     -0.21879753700337
  C   -5.28190025444876     -0.81180092519330     -0.12190851961256
  C   -3.88385450503787     -0.60259055891083      0.00489318440939
  C   -3.12126059485603     -1.71378360254720      0.43795677426450
  N   -1.83179664649916     -1.89384363989589      0.42617528563405
  C   -0.82355332217950     -1.05588284137011      0.16362940300537
  N   0.35464956204864     -1.67279931186373      0.00151462062243
  C   1.43133117307357     -0.91069180974689     -0.04978166248046
  C   1.36295222217628      0.55484625819995      0.16660684087841
  N   0.20322877275669      1.18590973648052      0.21968284929438
  C   -0.89732657296398      0.42966084618215      0.13543905134075
  C   -2.09282719086175      1.14579683264879     -0.11838815706915
  C   -1.95199695310599      2.55009090976334     -0.31361645103290
  N   -1.93868109175768      3.69638597167731     -0.48879072613681
  C   -3.39903770632725      0.67229129126353     -0.24873075582594
  H   -4.13316275079304      1.41302475117659     -0.53195244265243
  C   2.66251167181358      1.05237461513569      0.21515902799161
  C   3.12168299350820      2.35650157649258      0.40750862722834
  N   3.59527646232950      3.40787513075690      0.56038154199111
  C   3.53790321395583     -0.06542697359045     -0.01638957061516
  N   4.85518633090653      0.00764659522753     -0.05979592246628
  H   5.32843410498690      0.88591157966302      0.07674763730834
  H   5.41291575443381     -0.81356163767981     -0.22838416305995
  C   2.77365999255119     -1.26758272033001     -0.18761654747101
  C   3.35230084807369     -2.52060700593455     -0.39662947855422
  N   3.91790356141275     -3.52228643488894     -0.56918261942282
  H   -3.69241904189946     -2.57102754828177      0.78033566583410
