25
Coordinates from ORCA-job ./opt_b97-3c_parallel
  N   -6.26542483904182     -0.53784551121161      0.06039920189532
  C   -5.11572674113906     -0.37489616623450      0.04363794536323
  C   -3.71350778213401     -0.16963759470418      0.02599527945247
  C   -3.24695349288645      1.11175717652776      0.38282690290942
  N   -2.04542085753265      1.61954299854200      0.27521605434570
  C   -0.88557813882465      1.00655921427605      0.00126265893291
  C   0.21585189375432      1.83985975429504     -0.15446991705613
  C   1.48783875934527      1.29499858971327     -0.17196394626776
  C   2.76242597134570      1.82684177863202     -0.22454635485900
  C   3.67218018674059      0.75790795780519     -0.02933335468977
  N   4.99896885983181      0.83817179543902      0.00223713593594
  H   5.55750778982756      0.01394496296539      0.14950791590532
  H   5.47605597628636      1.71068721800759     -0.13179290766585
  C   2.95451694348027     -0.48208924426933      0.14438493848345
  C   3.58886485408066     -1.70809006727677      0.34071930406560
  N   4.21613862596234     -2.67560011755611      0.50138793304403
  C   1.59844802443770     -0.17639344894635      0.04249403462744
  N   0.56783937184428     -1.00652425806575      0.06044175990076
  C   -0.65831360275018     -0.49354883319865     -0.05036797328954
  N   -1.60377500300875     -1.39497863394576     -0.30515025068553
  C   -2.90839151449907     -1.24664793769047     -0.37016070598982
  H   -3.43553895837240     -2.12511874995285     -0.72890866876792
  H   3.03247607901810      2.86180014980749     -0.35814842851130
  H   0.04630933367319      2.90753165097236     -0.16281746544673
  H   -3.99993553323803      1.81131602426841      0.73125933036758
