22
Coordinates from ORCA-job ./opt_b97-3c_parallel
  N   -4.35680260129421     -1.37456989085478      0.68578729692327
  C   -3.52671164397418     -0.60102777620526      0.43310656303602
  C   -2.58611159510712      0.38953770038619      0.13296815044519
  C   -2.91078475338841      1.79378540947253     -0.12561175648749
  N   -1.86840165105684      2.54248727445643     -0.37368534308251
  C   -0.78291191106672      1.68073545081943     -0.29683420157104
  C   -1.21389995598935      0.31130170659587      0.02239339669885
  C   -0.26782608711622     -0.74065981414049      0.05000525939208
  C   -0.67520966009451     -2.09261123317985      0.12702037352874
  N   -1.02111832311063     -3.19747309011201      0.19454786719621
  C   1.07854234017309     -0.43819154360045     -0.11419528832496
  N   1.93400097872854     -1.41600544653374     -0.47626192655151
  C   3.23297569986489     -1.36881921747451     -0.46020452754523
  N   4.05468260111081     -0.56220059310393      0.25317020136384
  C   3.70464612211180      0.62879471407596      0.63398333079612
  N   2.68976906335476      1.41766833521433      0.20373764952563
  C   1.50129381745641      1.00170037220578     -0.13685751143566
  C   0.52516200148087      2.00878321531507     -0.41807100248051
  H   0.85097261597752      3.02814181732094     -0.56119046188382
  H   4.37667670138687      1.13189800057360      1.32191747968579
  H   3.73725105954827     -2.16815059853380     -0.99124723466569
  H   -3.91341793499568      2.19774460720271     -0.11560419076333
