25
Coordinates from ORCA-job ./opt_b97-3c_parallel
  N   -4.07122132136982     -2.62849010590681     -0.00753312596060
  C   -3.54319091414264     -1.59219417305727     -0.00357055426995
  C   -2.92283993310865     -0.33916538148049      0.00169720187231
  C   -1.54846205406180     -0.04999317985200     -0.00585823738400
  C   -1.47851351186752      1.42096290696509      0.00719323553778
  N   -2.71869648999942      1.97885220664939      0.02086096111450
  C   -3.55780377493689      0.93644508600630      0.01761260818783
  H   -4.62740985701748      1.09164102475538      0.02675297925624
  C   -0.24822560008874      2.00789864730034      0.00699342640997
  C   0.90801214807255      1.19286822175061     -0.00678641655144
  C   2.13432870526070      1.84552374796698     -0.00125635740544
  C   3.43733912331784      1.35660380638452     -0.00964101959515
  C   3.89325932376359      0.06208826688879     -0.02907846630361
  C   3.14861582080359     -1.13068069002587     -0.04061983799575
  N   3.85655600788250     -2.31029209568908     -0.11192666198887
  H   3.37060688176915     -3.15673584979167      0.12620026660962
  H   4.81457996275831     -2.29845093597745      0.18939916323723
  C   1.75850971363201     -1.22113673279672     -0.04108124376502
  C   0.72795149981908     -0.27533152203038     -0.02346669604697
  N   -0.49305435889782     -0.84745557947728     -0.02137365531584
  H   1.35582905949004     -2.22755994468963     -0.05653935995055
  H   4.97112908723382     -0.05758362577643     -0.04154383290566
  H   4.20878310253692      2.11611282264765     -0.00009483575235
  H   2.06312244125160      2.92711961217574      0.01245903745466
  H   -0.14760145570100      3.08532054856025      0.01882961961104
