27
Coordinates from ORCA-job ./opt_b97-3c_parallel
  N   -5.25466371145389     -2.05934628761938     -0.30589367811204
  C   -4.17962078288841     -1.65117441676392     -0.13152201736148
  C   -2.89567647861601     -1.09827594201963      0.06054652611367
  C   -1.88996245201203     -1.98984295291085      0.53857079550430
  N   -0.60727600414380     -1.88819060537186      0.58531784867541
  C   0.18815155858889     -0.82931660871439      0.27254804332938
  N   1.44747794088346     -1.14699937505597      0.06107393573973
  C   2.35714701554831     -0.17071638416450     -0.03615015257673
  C   2.05693972407251      1.23542180015933      0.23707209030398
  C   3.29572619773632      1.97722894714196      0.17571053613522
  C   4.27649286536165      1.09591388237109     -0.14098432806410
  C   3.71919960880282     -0.25589369713075     -0.27642243698014
  C   4.46242087154979     -1.39851575338668     -0.57686702158069
  N   5.11294702029144     -2.32953011380326     -0.83022201929500
  H   5.32233774935474      1.31896644734939     -0.27829089814430
  H   3.40350782234472      3.03720950090330      0.33514635629063
  C   0.76713488632949      1.58932294253920      0.43038087216693
  C   -0.25551316296325      0.58584513276649      0.30834291733936
  C   -1.55896342908678      1.03024673053884      0.11722195791895
  C   -1.76824795715418      2.43585242574906      0.11076303418458
  N   -2.01413731916907      3.57087926621131      0.08601556764001
  C   -2.76720375531644      0.27620156550314     -0.16374795125492
  N   -3.82979199535991      0.96985458032040     -0.60760802697544
  H   -4.71359378156581      0.50973054857768     -0.74401225865595
  H   -3.80990338410166      1.97059427638317     -0.69153749845364
  H   0.48891598831320      2.62156545368759      0.58935942888438
  H   -2.27879971474612     -2.94653326416073      0.87803248202793
