23
Coordinates from ORCA-job ./opt_b97-3c_parallel
  N   -5.86739911894376     -0.78488081493283     -0.36517060285825
  C   -4.74271303232684     -0.52867123784609     -0.23353050075660
  C   -3.36545654977268     -0.23707331136434     -0.07037730335488
  C   -2.92539366113966      1.02157255620882     -0.42993825374612
  N   -1.74396956506607      1.59409754487323     -0.17956076092398
  C   -0.60133971614849      1.02025938219215      0.10941160754251
  C   0.49953471613229      1.91113078687673      0.29213717107381
  C   1.75623872895993      1.40669533789429      0.22011733418514
  C   3.06047260402110      1.99909416513989      0.20202251543843
  C   3.95628819879580      1.00203933989970     -0.04623917106070
  C   3.26953628453107     -0.27945639274338     -0.18212852896908
  C   3.89845882689945     -1.50220124942301     -0.43472596283301
  N   4.45340892681683     -2.50218067830808     -0.64527553271167
  C   1.91675490141496     -0.04611109006202     -0.00720821319207
  N   0.90724139837688     -0.92522843410098      0.04823171390221
  C   -0.31511034685538     -0.45968880178648      0.16178006994771
  N   -1.25644562318287     -1.37220965616536      0.51128680110390
  C   -2.54489901849601     -1.27072564585357      0.49074028488455
  H   -3.08035658651698     -2.12018677303142      0.90406307128585
  H   5.02576687005640      1.11031512800138     -0.13320930100650
  H   3.28183258605166      3.04337613653777      0.34663263645189
  H   0.28474147092640      2.96907650530347      0.35447530415186
  H   -3.64666500453340      1.68682924128982     -0.89006791495542
