29
Coordinates from ORCA-job ./opt_b97-3c_parallel
  N   5.89271467214079      0.57274369493566      0.00149434456136
  C   4.73029877615684      0.53040589799434      0.00112224340036
  C   3.32484413012695      0.40133289232971      0.00054778484740
  C   2.57067325337120      1.58201943989126     -0.00006615657030
  N   1.27775866658144      1.79804066345785     -0.00052952684182
  C   0.26999365458266      0.91946874711606     -0.00080836626411
  C   0.39573856754409     -0.57910476270816     -0.00084074705639
  N   1.51074826777009     -1.27892273063154     -0.00012757889769
  C   2.79239897343494     -0.91916959420893      0.00067679938508
  N   3.63932220971223     -1.96633846962052      0.00162174174616
  H   3.24230628091097     -2.88868586317410      0.00136627999581
  H   4.63681192739583     -1.85319288728220      0.00204609597712
  C   -0.78481971253536     -1.36808739264652     -0.00181473609084
  C   -0.67021920763993     -2.77786006320123     -0.00207761156324
  N   -0.65973549868715     -3.93886482376887     -0.00247439834291
  C   -2.05222483500064     -0.78817580576796     -0.00212975001525
  C   -2.17259587446041      0.69470809943787     -0.00173892194701
  C   -3.50159180001381      1.01322346330353     -0.00218715354194
  C   -4.22478570164742     -0.23481331544820     -0.00287926519196
  N   -5.55472764231264     -0.32215820795963     -0.00346728371393
  H   -6.13082278234980      0.49978323100093     -0.00349284404529
  H   -6.01914097515668     -1.21230024429505     -0.00394310295519
  C   -3.32377799658523     -1.32775327086511     -0.00283632585287
  H   -3.58264415996803     -2.37299617325251     -0.00328643896101
  H   -3.93587933131001      1.99912660026924     -0.00205192159597
  C   -1.00961046332767      1.48670101964227     -0.00101338590485
  C   -1.15757151859507      2.89442115159539     -0.00081128861885
  N   -1.39920789911942      4.02964237465573     -0.00065679807937
  H   3.16232456528123      2.49242809490070     -0.00010720886242
