28
Coordinates from ORCA-job ./opt_b97-3c_parallel
  N   5.71469274530771      0.55935171832428      0.04039753748709
  C   4.55382933333130      0.48155836598029      0.01097599687079
  C   3.15126654204366      0.32312394078688     -0.01610826062272
  C   2.38752994264615      1.52135220973524     -0.01536634549898
  N   1.10991113206338      1.75693582849447     -0.01365343497749
  C   0.06600980737514      0.89207247394437     -0.01276446788397
  C   -1.17788001782534      1.48963107323207     -0.00123807940515
  C   -2.36331533813739      0.75099171807526      0.00076046940584
  C   -2.29801483131291     -0.73188099219236     -0.01062166179040
  C   -3.61046048453999     -1.22176127475022     -0.00947133172073
  C   -4.46079496472947     -0.10871738581340      0.00064909263570
  N   -5.81164854278990     -0.13287799030383      0.03944645115584
  H   -6.29550314124871     -0.99294187489516     -0.14376292556515
  H   -6.32432793771730      0.70717836080421     -0.15626581318877
  C   -3.68853600071988      1.10852074839375      0.00972723501909
  H   -4.09699970561958      2.10692400712301      0.02624769261207
  H   -3.91524374151027     -2.25590628338783     -0.01406825484198
  C   -1.06894683562159     -1.34201613364368     -0.02415262732468
  C   0.13726859567121     -0.60420681510435     -0.02341476782634
  C   1.29923955740447     -1.34701824806856     -0.03885239420514
  C   2.66426591283242     -0.99296591585285     -0.03487870180363
  N   3.55335092010591     -2.03017559304767     -0.09658314734377
  H   3.23640315919837     -2.94661176741949      0.16058230225766
  H   4.52566902692755     -1.84568851362941      0.08314621200012
  H   1.13393125249809     -2.41958332111786     -0.06298077913334
  H   -1.00478888000929     -2.42355864061350     -0.03377229535887
  H   -1.19993729820633      2.57040509491273      0.00515580289906
  H   2.99913568028264      2.41995115863361     -0.00846937365216
