28
Coordinates from ORCA-job ./opt_b97-3c_parallel
  N   6.11346033501574      0.38903507695954     -0.46572086867218
  C   4.96199039590584      0.24131044095370     -0.39667698703354
  C   3.56137782830462      0.12214488945243     -0.27570408913321
  C   2.96939359507170     -1.09659734507252     -0.61400680829397
  N   1.74708124123601     -1.53189856553806     -0.41014777509273
  C   0.65413136186211     -0.84558944296583     -0.09630799209946
  C   0.53375617864853      0.65689024173031     -0.14049104120343
  N   1.53761334983770      1.47162336139229      0.09557280421111
  C   2.84006683844544      1.24600201648528      0.23076030697547
  N   3.51790862525774      2.24291512732397      0.82425712150379
  H   4.51863558101933      2.22533939378198      0.90914660695634
  H   3.02618443329696      3.09755981898362      1.01601657607860
  N   -0.65265661589759      1.26215722933550     -0.32152042253125
  C   -1.73900124881893      0.53156714937812     -0.18213595961044
  C   -1.73909191073913     -0.91169803854502      0.20877473554653
  C   -3.03626522274321     -1.32800247114464      0.36093847004384
  C   -3.87235112805427     -0.20962620229171      0.05518578473837
  N   -5.19854817676681     -0.20520827996067      0.07252069074787
  H   -5.71054468576090      0.62845693021027     -0.16576407928675
  H   -5.72293488290612     -1.02312305804733      0.32510541971786
  C   -3.07670176834913      0.93225462407498     -0.28851009476848
  C   -3.61548432580089      2.17892908566524     -0.60237866725876
  N   -4.16031988306401      3.17682070824050     -0.85347865760714
  H   -3.37725294832529     -2.31890040789268      0.61205621140808
  C   -0.50583343579832     -1.57521865734048      0.20777729953215
  C   -0.45816138089889     -2.97720942532860      0.37808249188694
  N   -0.50488669055824     -4.12527002033788      0.54137933699298
  H   3.63591677418221     -1.83599418690121     -1.04598879184766
