26
Coordinates from ORCA-job ./opt_b97-3c_parallel
  N   -5.98725244777628     -0.32033837693184     -0.02566294452249
  C   -4.83063867930247     -0.22950615310412     -0.02546813039277
  C   -3.41436168659528     -0.10976776606695     -0.02826851452911
  C   -2.91097356141564      1.18782467949925     -0.13174535342684
  N   -1.66187540195813      1.62319923700991     -0.08216598086927
  C   -0.51998698619546      0.96759665527801     -0.02022812279421
  C   0.62983294951356      1.82488620747540      0.04777226998762
  C   0.45226353396489      3.23101359009707      0.08454419478590
  N   0.40136226906662      4.38849876027085      0.12186612059237
  C   1.88931661568096      1.27665644467188      0.04465398205422
  C   2.00112811534420     -0.19630059984985     -0.03096798804847
  N   0.95358533292163     -1.01426374254782     -0.05357950912392
  C   -0.26552043441987     -0.49920957566620     -0.03539836612685
  C   -1.31079918242774     -1.47132221759070      0.04310320889377
  C   -0.88130277964241     -2.82820303831194      0.11822265291095
  N   -0.64667022558873     -3.96202363538766      0.18433721198469
  C   -2.68385676925479     -1.30446094060913      0.06736676520766
  H   -3.26637524880155     -2.21007973066727      0.14852671473233
  C   3.35755760400663     -0.49892136355604     -0.05801149636740
  C   3.94719782620525     -1.76512386050281     -0.13187755945085
  N   4.46586773095521     -2.80347702410799     -0.19357427553620
  C   4.07202098082401      0.75658562236561      0.00441449939581
  C   3.19411308523457      1.81606495084596      0.06755171511603
  H   3.44672092670261      2.86141824041889      0.12102625631694
  H   5.14827114748500      0.82667897802367      0.00036949268894
  H   -3.64563838422675      1.97763431894378     -0.23551438147888
