30
Coordinates from ORCA-job ./opt_b97-3c_parallel
  N   -5.11219322747408     -0.80932867740646      0.94996927822037
  C   -4.19557745035209     -0.17075534771391      0.62810867905642
  C   -3.14150603272562      0.66040155521971      0.23693198637573
  C   -3.28612877801408      2.05123549019067     -0.17887146851889
  N   -2.15461805670250      2.62296990776090     -0.51757081537582
  C   -1.19934504879018      1.64756911998799     -0.32800868668143
  C   -1.78830624361081      0.39586234926723      0.12400004323013
  C   -0.97445912211435     -0.75135541442689      0.22629393751333
  C   -1.56095142102495     -1.99219225267499      0.57028976494066
  N   -2.04349626074871     -2.98576320125251      0.92627656993615
  C   0.40194655536242     -0.65318874976836      0.00644999050671
  C   1.12969722017502     -1.85093611459454     -0.34829612763279
  C   0.43453363508095     -2.82300870427396     -1.10193856347185
  N   0.00418170915856     -3.65803161775332     -1.78790982048806
  C   2.45868229105041     -2.19216648934753     -0.06800532746637
  C   3.34546881566239     -1.35150481986505      0.66275774109502
  C   3.27099268525668     -0.01436227141547      0.84027685943044
  C   2.31000954332614      0.92726330722299      0.35946679777063
  C   2.78269243892283      2.25789487205519      0.54177835419323
  N   3.29079863498782      3.26449909752819      0.81609743729159
  C   1.01266935707828      0.67651703020415     -0.07503987487976
  C   0.15668115498072      1.78710625431712     -0.45674009808949
  C   0.66714860185097      2.99809062163582     -0.97950384760070
  N   1.03018467749418      3.96094047630061     -1.51499484684886
  H   4.09932090322154      0.43392201284587      1.37069697013618
  H   4.22723232510152     -1.83668656836007      1.06289931637223
  N   2.94226957980676     -3.39741520851866     -0.43033328838547
  H   2.37784305672260     -4.05048078711732     -0.94683998328556
  H   3.91804965159685     -3.60571056255488     -0.33722528166720
  H   -4.22529641147871      2.58423715290734     -0.21682258867596
