29
Coordinates from ORCA-job ./opt_b97-3c_parallel
  N   6.54058394789078      0.72976515957746     -0.00404092792370
  C   5.39152685638486      0.56785052361182     -0.00265751179756
  C   3.98253878091510      0.39094020081449     -0.00018334751796
  C   3.20996417454716      1.57408198859847      0.00760911479832
  N   1.91462017567234      1.74093000351547      0.00722679799649
  C   0.91045586155588      0.85906640127930      0.00314497151844
  C   0.97400703368954     -0.62176824317958      0.00294284053582
  N   -0.11830807495769     -1.38528206631514      0.00425040758874
  C   -1.30764050700802     -0.80487061167405      0.00329522534715
  C   -1.50935969331899      0.65507433025747     -0.00021725837455
  C   -2.87955397767961      0.90449177916060     -0.00143648153190
  C   -3.59796458859997      2.10307808477126     -0.00459020554668
  N   -4.30656178487650      3.02553862254758     -0.00714282273694
  C   -3.53794972838222     -0.37441809735391      0.00150852167285
  N   -4.84678265836936     -0.55092989797146      0.00146207622021
  H   -5.47361450711803      0.23743062680458     -0.00080622827514
  H   -5.24372970934436     -1.47619064491380      0.00370600519223
  C   -2.56045921632441     -1.42118905709223      0.00454882213840
  C   -2.88651200163806     -2.77880684089314      0.00770732479245
  N   -3.25826757604979     -3.88064181505876      0.01036041175738
  C   -0.37330278824624      1.45771384770863      0.00035993009830
  C   -0.48107050168832      2.87005039783346     -0.00021149425697
  N   -0.63514099661346      4.01909184920862     -0.00091665985494
  C   2.18723690468761     -1.36055336472246     -0.00206495166431
  C   2.04976523022792     -2.77855079824238     -0.00573068620201
  N   2.05790017248582     -3.93838483546655     -0.00915696495978
  C   3.50764008621875     -0.91402778188211     -0.00469711408094
  H   4.25724374106325     -1.69217484619586     -0.01002618993820
  H   3.77584345797606      2.49978289457210      0.01345046720477
