30
Coordinates from ORCA-job ./opt_b97-3c_parallel
  N   3.72623057991894      3.24186250310587     -0.04081622649782
  C   3.22684211785511      2.18763098375431     -0.03897572442142
  C   2.67605026848729      0.90973063763488     -0.03417403611548
  C   3.42684268982853     -0.30377269878401     -0.01754947348845
  N   4.76543887628683     -0.36133818640443     -0.02782263867286
  H   5.24708045094476     -1.23620484244268      0.05498455070777
  H   5.31163529974470      0.48027213556135      0.02005866478861
  C   2.54343513061014     -1.41499007352995     -0.00607000710013
  C   1.25274036174060     -0.92031965528609     -0.01424877119813
  C   1.31234435334480      0.54523981146678     -0.03248929830143
  C   0.15968825071744      1.27935545029664     -0.04112851877561
  C   -1.11823835510080      0.67203943595981     -0.03509920018072
  C   -2.19196661724478      1.55672865104257     -0.04561378110406
  C   -3.58413548349791      1.40040051715634     -0.03471325587159
  N   -4.33804450255029      2.55895954707840     -0.09948682317935
  H   -3.89336666165923      3.40655412642339      0.20735467805507
  H   -5.29347792962782      2.49064280626443      0.20478452778171
  C   -4.26610395965144      0.18355728068431     -0.02442286346654
  C   -3.73019115160189     -1.08891487935318     -0.01645390215093
  C   -2.41255615657697     -1.51015785717830     -0.01266280676727
  C   -1.20800054724317     -0.79966279081839     -0.01770980381627
  C   -0.00315648794206     -1.54480762077703     -0.00853445475786
  C   -0.02718640409435     -2.95725813391769      0.01185253867614
  N   -0.00067453615816     -4.11921728821819      0.02963504221511
  H   -2.29614662711094     -2.58631953053157     -0.00274358584859
  H   -4.45854270186968     -1.89022594139683     -0.00742345935145
  H   -5.34885155641606      0.24307904559297     -0.02813592205583
  H   -1.87871165188964      2.59568470639543     -0.06810601501092
  H   0.21764677334260      2.35988150176809     -0.05465441680730
  H   2.83547866901354     -2.45243326114710      0.00367535551558
