24
Coordinates from ORCA-job ./opt_b97-3c_parallel
  N   -4.91747267726203     -1.92122501048582     -0.80030120888074
  C   -4.17700130591262     -1.08264032135517     -0.48296646089995
  C   -3.26309697287052     -0.09402824178133     -0.10218803256472
  C   -1.85210914020195     -0.18175612973810     -0.12385249996963
  C   -1.39076859788851      1.13906789630788      0.39211993919261
  N   -2.42287090462013      1.92200680878468      0.70648167135914
  C   -3.52851708663829      1.18958004069574      0.40346004932329
  H   -4.51209653969971      1.60829833121655      0.55749119724346
  N   -0.10934268802851      1.47364432620158      0.48675011437045
  C   0.79524217015264      0.55325143445615      0.17512909387209
  C   2.09766875173276      1.02224802436307     -0.09184730810263
  C   2.30701202525734      2.42600647015683     -0.07593081943557
  N   2.58470716347939      3.55270485071033     -0.08435379160035
  C   3.22231276299112      0.26473972074024     -0.49349728950331
  N   3.45991317906045     -1.01589050632951     -0.39091550855430
  C   2.56796741209292     -1.91472055373342      0.06023360227559
  N   3.08599623752126     -3.02333081740117      0.60969966828837
  H   2.48592545043425     -3.80726131145868      0.79239024050314
  H   4.08076828030744     -3.15820661747309      0.58662603439161
  N   1.24207700650427     -1.90987128617222     -0.10683436418283
  C   0.43000896089662     -0.87612361148673     -0.12278682415893
  C   -0.93765160773842     -1.16134394554665     -0.36077031799877
  H   -1.21016339471676     -2.17651228502423     -0.61314409635418
  H   4.04045349104736      0.83947710395324     -0.91329701661403
