25
Coordinates from ORCA-job ./opt_b97-3c_parallel
  N   -5.75445305604640     -0.28487196101695      0.50370134879431
  C   -4.59499429272099     -0.24742246460297      0.42466556413573
  C   -3.19427842760999     -0.13969570021125      0.29419176629235
  C   -2.40775535227750     -1.25484578801380      0.56498047599518
  N   -1.13695681256664     -1.46882867576682      0.29652005021659
  C   -0.17100001156684     -0.60641425992658      0.03862576312368
  C   -0.28972189058690      0.88487856486677      0.25765840725869
  N   -1.41476137712639      1.53135321794537      0.03459714370706
  C   -2.65438590631905      1.10802640608527     -0.15800807313214
  N   -3.47474175521938      1.99602391997361     -0.74214934403176
  H   -3.13245255519846      2.92795991527470     -0.89506030890064
  H   -4.45467544118589      1.81070056136467     -0.86171957780962
  N   0.76618444279776      1.64584901710008      0.56762307494782
  C   1.95260364968747      1.10091948307399      0.36583629194925
  N   3.14034745363821      1.66373030268508      0.57737460944076
  C   3.99789042932256      0.71434641826347      0.11186567452634
  N   5.30719670796886      0.89644778706934      0.13630503489841
  H   5.91655839360806      0.17802258678055     -0.21216043087889
  H   5.68848568309343      1.74594673720153      0.51228067959942
  N   3.47125116719698     -0.45761814035692     -0.38802235962559
  C   2.17505700939965     -0.25705578692463     -0.22974138323715
  C   1.08225314827379     -1.11124421474214     -0.37193862377815
  C   1.23395864253035     -2.46801544426066     -0.73223379342628
  N   1.37724386924458     -3.57531160844845     -1.04666612277274
  H   -2.92478543872197     -2.11392114298755      0.97950154630194
