26
Coordinates from ORCA-job ./opt_b97-3c_parallel
  N   -5.72354574782610     -0.54270350382121     -0.88207758777822
  C   -4.59867055662353     -0.35257875201091     -0.66166930682689
  C   -3.22996548824732     -0.18117775206421     -0.35373415012947
  C   -2.63278971406860      1.01316927174161     -0.66933154275797
  N   -1.43530057030876      1.48053411532564     -0.29284060727880
  C   -0.37061332441056      0.80441304619994      0.02258593677110
  C   -0.22616150710449     -0.69166036479614     -0.02365481097722
  N   -1.25198119039532     -1.49364273175084      0.28945008412809
  C   -2.53995806518805     -1.27502112138627      0.31556426433687
  N   -3.29427733209263     -2.19299524667092      0.94739888955067
  H   -2.84231484727184     -3.03196614395012      1.26630189153555
  H   -4.29757606858445     -2.16917986687472      0.91613826431854
  N   0.94577715040534     -1.26634924004411     -0.19642347216631
  C   2.03624337013869     -0.49291358363353     -0.14563250533485
  C   2.02040994458511      0.94309891486310      0.24349072799785
  C   3.36783958332383      1.40220071568120      0.31329113350766
  C   4.16488608671778      0.35134573883465     -0.03857028614041
  C   3.36270590083459     -0.83587178577280     -0.33013378745527
  C   3.87566321975721     -2.08054239610315     -0.70344242751100
  N   4.33238424900276     -3.10481893043014     -1.01228785102847
  H   5.24160786228675      0.36462986560831     -0.10336847848638
  H   3.68101673282465      2.39949267514631      0.57098928275509
  C   0.81081585888799      1.57230348596002      0.34559551868675
  C   0.70452071067564      2.96114917473528      0.59327303789906
  N   0.66440637257565      4.09761807919039      0.82045581845435
  H   -3.22991450469801      1.73376952482338     -1.21562673717086
