25
Coordinates from ORCA-job ./opt_b97-3c_parallel
  N   -5.61525295167640     -0.41065831452239      0.52212977550106
  C   -4.45966750293258     -0.39922922722603      0.38872185986463
  C   -3.06274439099008     -0.32135810929260      0.20392515319516
  C   -2.32079504529633     -1.48745110120315      0.33583783764044
  N   -1.05671688357797     -1.73983538145700      0.05008174080857
  C   -0.05744427101781     -0.88426516666576     -0.12672331025599
  C   1.18079673649656     -1.43294343381619     -0.48298490256893
  C   2.30502645213065     -0.65877633626372     -0.32457785345533
  N   3.59895762476668     -0.98266837606735     -0.46792584785269
  C   4.26287664639055      0.11094173217188     -0.00562674300157
  N   5.59457869047047      0.11354546163060     -0.00260107435559
  H   6.08283309431347     -0.69539545124648     -0.34537925986317
  H   6.12286128152683      0.89406603480505      0.33857055952393
  C   3.41663841143401      1.17842929069274      0.44415155691013
  C   2.14137087124352      0.71898858893930      0.23312024485972
  N   0.95665737849020      1.32409148148205      0.39080513916421
  C   -0.12883328587071      0.61440975943454      0.12394604098941
  N   -1.24458607846834      1.32154268665811     -0.04370187230294
  C   -2.50206304611840      0.95344620748410     -0.15506970506070
  N   -3.34440840173861      1.91537313747841     -0.59148479470322
  H   -2.98212871122854      2.84993158965302     -0.65231079015838
  H   -4.33980644722984      1.78381048521535     -0.58211716572594
  H   3.72072185031897      2.13427396209113      0.83551463475743
  H   1.23515120916343     -2.48366992008499     -0.72885455683887
  H   -2.88011169640151     -2.36147276949525      0.65497053122059
