26
Coordinates from ORCA-job ./opt_b97-3c_parallel
  N   -5.79263540360354     -0.90933860025589     -0.00183528564349
  C   -4.64228869235485     -0.75229997320868     -0.00130129545514
  C   -3.23374682283342     -0.57237625601825     -0.00069479569503
  C   -2.46050463601166     -1.73930508412922      0.00006308102161
  N   -1.15570685449770     -1.91183884616240      0.00137349662145
  C   -0.15189380041475     -1.03008606802812      0.00159964247587
  C   1.10758980488508     -1.64622604290258      0.00356877413425
  C   2.27168497549221     -0.91034529313027      0.00329250870982
  N   3.54232700013564     -1.34886938689349      0.00473669431641
  C   4.28643405513802     -0.21555751069154      0.00341428605785
  N   5.61779383836112     -0.29235811922307      0.00420138707880
  H   6.05397735566815     -1.19759747076285      0.00639147133621
  H   6.19698933247910      0.52555206944709      0.00398608059938
  C   3.50682611786414      0.99235058785533      0.00105347790733
  C   2.20308471089818      0.56231484546552      0.00097021050778
  C   0.95738113093250      1.19483489216789     -0.00066995682249
  C   -0.22035907997378      0.47357735266883     -0.00019340900937
  C   -1.45489664081220      1.19620021366212     -0.00087123336767
  C   -1.36126001960628      2.61915960601145     -0.00154854795713
  N   -1.31085275126428      3.77857004432268     -0.00216051973417
  C   -2.76364063093337      0.74513673020992     -0.00096446621857
  H   -3.52305463642144      1.51380437478785     -0.00146487717358
  H   0.91877062098611      2.27470086579874     -0.00207131063007
  H   3.88034827598155      2.00312656078753     -0.00034110899918
  H   1.13105611534637     -2.72511626771227      0.00488569046537
  H   -3.02298056464076     -2.66754428156638     -0.00019038102621
