28
Coordinates from ORCA-job ./opt_b97-3c_parallel
  N   -5.45683370204746     -2.04156689071606      0.09298661872776
  C   -4.37271384829255     -1.62453344191294      0.03892433668995
  C   -3.08135829577980     -1.05686789624628     -0.02060914996538
  C   -2.00740658256668     -1.98076003002905     -0.16417146583418
  N   -0.72307921197851     -1.83514452528892     -0.16779616706897
  C   0.01739567284791     -0.70622692142191     -0.08310679253482
  C   -0.46610772182265      0.67747081665008     -0.10113039499625
  N   0.39318978153377      1.74992901328437     -0.13962928107129
  C   1.67080194944486      1.52440305229341     -0.07789039276939
  C   2.27405292634498      0.18339648290531      0.02106735709098
  C   3.64134946212684      0.36548960594946      0.07669529858124
  C   4.65654402685226     -0.58912227049069      0.17247247801033
  N   5.54635180768909     -1.33429035332823      0.25541674843893
  C   3.89806726152826      1.81322746814096      0.01205789535609
  C   2.73264289306312      2.49841155137238     -0.08305606942508
  H   2.59081795356531      3.56339780766020     -0.14239997597466
  H   4.89190243283514      2.23066200606755      0.03974598098530
  C   1.40259737549230     -0.91402558945289     -0.00916106136802
  C   1.90041526078541     -2.23980865673257      0.01427938279932
  N   2.36076573258728     -3.30366309374875      0.03764716171234
  C   -1.78952659798303      1.10206343255510     -0.04828604245563
  C   -1.97451991360707      2.51279933909599     -0.05642470252587
  N   -2.33345411551517      3.61773751788868     -0.04714904306786
  C   -3.01911817085145      0.34345562250477      0.04696246582985
  N   -4.15383114969483      1.04279318723031      0.18584628473924
  H   -5.04186695527519      0.57276335929467      0.23207861856008
  H   -4.15097998675054      2.04836065060688      0.20166548712014
  H   -2.33511250113170     -3.01126509913183     -0.26600512488416
