24
Coordinates from ORCA-job ./opt_b97-3c_parallel
  N   -5.56973743849628     -1.78190427730481      0.45835927848472
  C   -4.50024830593457     -1.36641822867353      0.28484177694380
  C   -3.18082803862736     -0.89294711172451      0.06302365557217
  C   -2.22669236802732     -1.86964361089008     -0.37580748000263
  N   -0.94164389951007     -1.79743636374150     -0.43203794335720
  C   -0.08061438861275     -0.77688165876327     -0.19675789289914
  N   1.16995670007749     -1.18139643533414     -0.07075766269951
  C   2.12862873371543     -0.25567805261452      0.00109265544955
  C   1.88990453641594      1.17973073132946     -0.19148834058153
  N   3.06147727442037      1.89326992740191     -0.17895107706880
  C   3.99991193953492      0.98553660694265      0.03212708534922
  C   3.50358311418041     -0.37181925813818      0.15325237742965
  C   4.27494793630399     -1.51779702500121      0.36278406475954
  N   4.94424321399736     -2.45191389544357      0.53805968461658
  H   5.04187358594487      1.26427592840593      0.10060003253514
  C   0.60913977618129      1.62349653866534     -0.29684143664681
  C   -0.44170646869985      0.67570337589136     -0.19731619680943
  C   -1.73897769769584      1.15664588231270      0.01417199163284
  C   -1.91708149991275      2.56962427231665      0.08879073891735
  N   -2.10701184384168      3.71225358887717      0.14961872169152
  C   -2.94446684304705      0.44849706181753      0.22443602085062
  H   -3.79306422866383      1.05742686091993      0.50236578890125
  H   0.39779642262664      2.67985099140118     -0.38084340904303
  H   -2.64705287172953     -2.82844895405249     -0.66536377652588
