23
Coordinates from ORCA-job ./opt_b97-3c_parallel
  N   5.67124295326374      0.07776915198795     -0.00249079035935
  C   4.51336970974062     -0.00332641803806     -0.00223409797173
  C   3.09884296751326     -0.12045504723483     -0.00151386049918
  C   2.36776691764080      1.06095872973199     -0.00125548773177
  N   1.05130991840081      1.24723567186318     -0.00052641836288
  C   0.07466871556273      0.36723811516571      0.00017496449739
  C   0.19392071228549     -1.14692020546019      0.00030997639072
  N   1.33882803750107     -1.85226324651267     -0.00031159365087
  C   2.57641954970098     -1.44164772368484     -0.00109026597587
  H   3.31578783190805     -2.23538567102323     -0.00144495381548
  C   -0.95737579117460     -1.91859911288877      0.00113767578919
  C   -2.21635946497389     -1.33439131490958      0.00187080105676
  C   -3.51584494525883     -1.80458879237221      0.00277992807796
  C   -4.33024848656353     -0.64366776523591      0.00315383323367
  N   -3.64660486907408      0.51734599847602      0.00253128686925
  C   -2.35229766411848      0.14114893730328      0.00174225617249
  C   -1.22925124545537      0.95012553074354      0.00089029587521
  C   -1.35988619670283      2.36115506186968      0.00075298866705
  N   -1.50146237455172      3.51140778558455      0.00065542569212
  H   -5.41140925367924     -0.62789026840884      0.00386682078517
  H   -3.84966914138557     -2.82856946559454      0.00314636142851
  H   -0.82950826433697     -2.99165919954020      0.00120174815401
  H   2.93830382325755      1.98239190357801     -0.00169030362239
