29
Coordinates from ORCA-job ./opt_b97-3c_parallel
  N   6.22693754662407      0.16244429323730      0.49032296966415
  C   5.07729872706690      0.02568474725304      0.38639842588421
  C   3.67812578669471     -0.07494844112681      0.22370542355456
  C   3.06783236599263     -1.28379226688479      0.51943466081475
  N   1.83215621911378     -1.70067798701249      0.29786469266561
  C   0.74286883078594     -1.00872707864191      0.02732201850998
  C   0.65601129420660      0.48612525065255      0.05391727538217
  N   1.67556492247761      1.29613394183277     -0.16765740745880
  C   2.97520716488186      1.08385313580734     -0.25721164829380
  N   3.68387765709085      2.10047800429255     -0.77400615729668
  H   4.68731796545224      2.08302141094920     -0.81562148983662
  H   3.20271847891944      2.96244014622133     -0.96299197558968
  C   -0.60645256633592      1.09654714401598      0.21438307041307
  C   -0.67373892614006      2.50237384683533      0.33718266899334
  N   -0.73863369407405      3.65646624875522      0.43930021565430
  C   -1.76370064758422      0.31895875735110      0.11862145397736
  C   -1.67171170102968     -1.12772316496324     -0.17613544357312
  N   -2.87607472418608     -1.69588545273281     -0.30625097525753
  C   -3.75551822409861     -0.69159377318015     -0.10559438195058
  N   -5.06106777751990     -0.89033345949684     -0.15525871461392
  H   -5.70889042373540     -0.13621092340308     -0.00265298064591
  H   -5.41437758068922     -1.81295075343192     -0.34392886832395
  C   -3.12179606240257      0.58859863461257      0.16303988793112
  C   -3.83627966159672      1.76324947656658      0.39848913974617
  N   -4.54014496983214      2.67131966806281      0.58409228653843
  C   -0.43340964349554     -1.76039224190198     -0.22412485752070
  C   -0.34961907636593     -3.16194601249081     -0.38698209526576
  N   -0.30184702784409     -4.31073014775165     -0.53727492775567
  H   3.71470989712350     -2.04692236782715      0.93913970905353
