26
Coordinates from ORCA-job ./opt_b97-3c_parallel
  N   -1.52475656144733     -4.12763169031162     -0.04018263772203
  C   -1.53973975995056     -2.96706030085856     -0.04158650147467
  C   -1.70504941614138     -1.55667551855963     -0.06301888058911
  C   -3.01593201279386     -1.13236135085415     -0.41992240063295
  N   -3.59733361025984      0.02523247603755     -0.33370029081079
  C   -2.96574259497144      1.13883591555481      0.12922907196604
  N   -3.80072831044149      2.06702343524458      0.63417141958108
  H   -3.43950118670698      2.98567089505081      0.81860443005018
  H   -4.78876047399588      1.94291185459094      0.50928078900952
  N   -1.69450716962249      1.47913872635167      0.05829244645007
  C   -0.61278413067004      0.71689662329170     -0.04914117189703
  C   0.60699454837252      1.37960210657712     -0.27038565093169
  C   0.63213953111427      2.77485369513232     -0.48667600001593
  N   0.72615297198762      3.91731850552741     -0.67126653335998
  C   1.80213675523892      0.65640636832421     -0.16483541335809
  C   1.71513254346291     -0.78483363591363      0.22367481234441
  N   2.92705309816298     -1.31521472723830      0.39770115825186
  C   3.77998529467480     -0.28975954715405      0.12804003826731
  N   5.08950182422700     -0.49355479283391      0.20952090446816
  H   5.42523086156439     -1.40592598602105      0.46672092477273
  H   5.75289499997413      0.23175375446642      0.00967862712250
  C   3.13580037569857      0.94587829054408     -0.22449926298117
  H   3.60934792049418      1.88566722565119     -0.45439630139188
  N   0.57517776249068     -1.44064049927144      0.34232941322535
  C   -0.56187441651966     -0.76613676381788      0.13034943705315
  H   -3.65110129054207     -1.92323336231067     -0.80704203459701
