26
Coordinates from ORCA-job ./opt_b97-3c_parallel
  N   5.21279395563680      1.53355800065335     -0.02989663881394
  C   4.09098313146258      1.23299521972531     -0.06653065430604
  C   2.74245195964165      0.80685520823341     -0.09997394592345
  C   1.78745902878863      1.80850455905257     -0.34170061475402
  N   0.48860903797364      1.79460597612758     -0.24484926863433
  C   -0.36846878613172      0.78923302541535     -0.07654638432035
  C   -1.69963882356056      1.19220078622081      0.14588959850343
  C   -1.99853208584118      2.56756115247904      0.29050427805664
  N   -2.28371121215723      3.68347444622189      0.42400754936622
  C   -2.72368851565397      0.23798629573415      0.13995289619496
  C   -2.40970519016565     -1.17013213063558     -0.15753088006526
  N   -3.57342263632825     -1.86704597305548     -0.18287695733724
  C   -4.47925273465925     -0.92034708495666      0.08209063399591
  N   -4.03496627396537      0.36673410461439      0.28611700462641
  H   -5.53402034229193     -1.14773162707840      0.13698530630020
  C   -1.12165154832489     -1.59387411570470     -0.32412599078266
  C   -0.05631086871624     -0.67416762718332     -0.19257779306176
  C   1.23360403756989     -1.20637726357559     -0.06503344354394
  C   1.32908195117151     -2.62576651503173     -0.04829156106836
  N   1.51064453526878     -3.77194852929109     -0.01401421495434
  C   2.51472210712159     -0.57173062228317      0.10162695499502
  N   3.56803376590162     -1.35194751431853      0.40228822006801
  H   4.49326133919002     -0.96181006643172      0.45201305014864
  H   3.48301350363528     -2.35084087708746      0.46936963539995
  H   -0.92513606043347     -2.64248434997834     -0.49106351066972
  H   2.20349144076768      2.78166596233382     -0.58236925522004
