25
Coordinates from ORCA-job ./opt_b97-3c_parallel
  N   -5.42564148515642     -0.57287856608643      0.11334770547489
  C   -4.26885724111882     -0.45933962740416      0.16840095237251
  C   -2.87437334200059     -0.26261472145025      0.20385135940132
  C   -2.04943044656340     -1.37603397808416      0.51853806383897
  N   -0.76673604174135     -1.52796592318634      0.41728735180139
  C   0.17364362215997     -0.59131901751497      0.15267030874459
  C   -0.03548346507117      0.87468305953363      0.31080905865864
  N   -1.16107400927879      1.50341149788110      0.16903321553786
  C   -2.39109231042843      1.01972773629090     -0.11553758516032
  N   -3.20315455808065      1.94145322551065     -0.65643598573185
  H   -4.16723779954525      1.74054334396487     -0.85623581432654
  H   -2.88421288230302      2.89312092268748     -0.68874248604801
  N   1.02423507512986      1.73090015067248      0.56899019182771
  C   2.20915397626514      1.28155447740152      0.30707654286328
  C   3.46683578794311      1.99888327422713      0.39531005161683
  C   4.43112217402336      1.14512813370592     -0.03025865698167
  C   3.85582243474984     -0.15646949355398     -0.38275913012587
  C   2.51343868750045     -0.08866537934131     -0.18277910825756
  C   1.45367884328236     -1.02379431608945     -0.16762068635000
  C   1.71982831195930     -2.39395509853979     -0.39348311922013
  N   2.01838958955291     -3.49595639535351     -0.60061989413970
  H   4.41846507590017     -1.01877917469452     -0.70246318615321
  H   5.48424622494171      1.37116396621717     -0.10366165829260
  H   3.56853529996492      3.02509938545145      0.70281795937274
  H   -2.58613058098622     -2.26528215904823      0.83503791788149
