31
Coordinates from ORCA-job ./opt_b97-3c_parallel
  N   -5.69322366551066     -0.13182412690954     -0.27184928963978
  C   -4.53350499340789     -0.15259299116891     -0.15889222315438
  C   -3.13364567909983     -0.16265016728596     -0.03068209063543
  C   -2.49655119831250     -1.43749791201322      0.13697874543446
  N   -1.22410237963274     -1.74960958528619      0.10426075299532
  C   -0.10372445475903     -1.01555478758507      0.03311373319172
  C   1.06782198715018     -1.75543732103091     -0.07211312091817
  C   2.32572092412012     -1.16890222812109     -0.07009334080505
  C   2.44307164211762      0.30910875345458      0.06504698612875
  C   3.78574382189706      0.64019956018247      0.06909181277420
  C   4.50322165955549     -0.57545225220939     -0.05922486730137
  N   5.83901819234085     -0.68138997089988     -0.10162040147630
  H   6.42641364958163      0.12632659531804     -0.01044242007800
  H   6.28808574504584     -1.57569717113398     -0.16215194102547
  C   3.60192728994119     -1.68412774059427     -0.14431037245471
  H   3.88404989307331     -2.71962916029750     -0.24552627294943
  H   4.21146791543033      1.62646534968655      0.15172377842001
  C   1.28080989884390      1.07357365449794      0.15596656615017
  C   1.40958256735863      2.47474118699775      0.24699730320895
  N   1.53262640399319      3.62949458216076      0.31940557749698
  C   -0.01561296671098      0.47160905984745      0.09578658871850
  C   -1.10202994493527      1.31335813268490      0.06263842500130
  C   -2.49060277685972      1.08438253587178     -0.04197613987708
  N   -3.25478800972439      2.20738538741795     -0.12162363235992
  H   -2.81737884061975      3.08734916224536     -0.31995623119669
  H   -4.23854793716017      2.14150120354398     -0.31419545411948
  H   -0.85108964590458      2.36677935652738      0.09773645044468
  H   0.96093864533391     -2.82985353365517     -0.12058835543295
  N   -3.32112036613330     -2.50762970423251      0.35383035905135
  H   -2.89157271685225     -3.40656296179141      0.22746269117439
  H   -4.30396571686020     -2.44102759222187      0.15714353203340
