24
Coordinates from ORCA-job ./opt_b97-3c_parallel
  N   5.63508913154465      0.35335412776179      0.41118060794871
  C   4.47492403346513      0.36467131982033      0.32774943756454
  C   3.07070666616711      0.31472941471857      0.20187526260071
  C   2.35395919328272      1.50651553577765      0.31612031698423
  N   1.09640802468740      1.77435636305710      0.04806142441365
  C   0.07235207311550      0.93520568740796     -0.10721160157277
  C   -1.14340712046758      1.47993367010592     -0.51433955504149
  C   -2.27768381973936      0.71384529772129     -0.33704326458971
  N   -3.56948194352134      0.98659147083904     -0.50214152894367
  C   -4.16159825653165     -0.12291875192931      0.04734174497088
  N   -5.48205137919244     -0.23278936119984      0.08344728988924
  H   -6.05423955080633      0.49812653470957     -0.29853289082899
  H   -5.90449066263792     -1.04538492239886      0.49413157100966
  N   -3.36260997791620     -1.10367836390908      0.55810484108331
  C   -2.14337751934346     -0.62465371098421      0.31976508200870
  N   -0.98995686868875     -1.22587925954222      0.56053355572827
  C   0.11395113294803     -0.54667175554242      0.23026438811629
  N   1.20225209839771     -1.28057385561761      0.10225361202189
  C   2.46997559963135     -0.94935577781018     -0.08955737558870
  N   3.25391673200430     -1.95579274290709     -0.51923259662397
  H   2.85887112997017     -2.87891798311006     -0.53998392845254
  H   4.24914450368218     -1.84992181416802     -0.60237581427214
  H   -1.18353421071631      2.51739802806448     -0.81289230313049
  H   2.94089659517044      2.37568328984404      0.59696242351064
