24
Coordinates from ORCA-job ./opt_b97-3c_parallel
  N   -0.65576211042381     -3.66338292289981      0.90475954203255
  C   -0.89379767304288     -2.57309136878215      0.58427297678870
  C   -1.28749130069854     -1.24118963949018      0.29313032147704
  C   -2.65670077582455     -1.01536587278240      0.50989233960344
  N   -3.39835796464046      0.03477028245777      0.23256081950716
  C   -2.89966212896723      1.21013370470431     -0.14776883831376
  N   -1.72729183795801      1.75502015959575      0.23025641531056
  C   -0.57170631451690      1.15251080285932      0.33301882474032
  C   0.51367465723359      2.00356005483775      0.71722318696353
  C   1.77780528328192      1.60244307102687      0.43995767581624
  N   2.97230401265323      2.26777622576403      0.55443014592340
  C   3.82526135728917      1.41902518721325      0.00784669347111
  N   3.32633556218911      0.21944261142391     -0.49244260151046
  C   2.04096273095210      0.31001845421468     -0.21875659589090
  C   0.99650152306889     -0.62230885790554     -0.42417994093218
  C   1.29816586798226     -1.86854054867410     -1.01878431261769
  N   1.56186867473620     -2.84826058391090     -1.58158159193770
  C   -0.29615251323420     -0.27219261927865     -0.03013324940691
  H   4.88210674525002      1.63249743896164     -0.06007315709108
  H   0.27945040514898      3.00171418595128      1.05607716973544
  N   -3.71066084692404      2.01500114008588     -0.84821205004150
  H   -4.65925668899518      1.72721647588609     -1.00898270261442
  H   -3.45755900398486      2.97711088442958     -0.98175024125629
  H   -3.20789117017982     -1.85397032969920      0.91905111923759
