29
Coordinates from ORCA-job ./opt_b97-3c_parallel
  N   5.83341631132697      0.39413442561059     -0.16975799405654
  C   4.67363974828694      0.38944080624427     -0.08076877899828
  C   3.26788807419058      0.32144904548766      0.01876409655086
  C   2.59848811495927      1.56616695323178      0.22868858528125
  N   1.35258937239209      1.88418780999127      0.24367035680011
  C   0.24852665035034      1.10059664149928      0.09980702038920
  C   -0.94274556074103      1.81973062484913     -0.00492452316710
  C   -0.90769154799153      3.23526137122920     -0.02430209941432
  N   -0.99834338569140      4.39154716259154     -0.05438894274942
  C   -2.19805087823725      1.17808797956829     -0.06809963622589
  C   -2.23882710795098     -0.26793510168399      0.03533339450493
  C   -3.64518286912430     -0.66172774612773     -0.00825321551493
  C   -4.10873901001828     -1.97866437845175      0.05820258259655
  N   -4.45500010669740     -3.08768493868966      0.11633945888294
  C   -4.37468353538989      0.49830662818639     -0.13123685087068
  C   -3.49279711584249      1.63277844232341     -0.16758516889879
  H   -3.80230083242390      2.66177004527300     -0.25161564923765
  H   -5.44995609070270      0.54884871600554     -0.19058953798554
  C   -1.11104724167399     -0.99781348644950      0.14644650690354
  C   0.18789391882874     -0.36696247910539      0.11966696076477
  C   1.27827671999240     -1.23236414440911      0.08236676529909
  C   1.00441583591905     -2.62570471967747      0.13896742512823
  N   0.88884627615174     -3.78108240469627      0.17632247263288
  C   2.70156960698354     -0.95331841278050     -0.06078039816901
  N   3.50629273229859     -2.01076541948816     -0.25709004718100
  H   4.50167251163022     -1.88392191687073     -0.32687685586748
  H   3.15456880199165     -2.95169753491339     -0.27150537812233
  H   -1.17608442426126     -2.07400772307813      0.21683972111609
  H   3.27572381064431      2.40294999963040      0.37630033170856
