27
Coordinates from ORCA-job ./opt_b97-3c_parallel
  N   -4.73537644756840     -2.43637594524933     -0.79288924927481
  C   -4.07145914523896     -1.51768144754686     -0.52901962929780
  C   -3.26634301213538     -0.42116184283720     -0.21132477085445
  C   -1.87025151849448     -0.38247709984850     -0.13244460335585
  C   -1.56623754729892      1.00956105912858      0.25481360108246
  N   -2.70028635905232      1.75040722664019      0.39274087102233
  C   -3.69255255511117      0.90616375482778      0.11805155165035
  H   -4.72210397091729      1.23388696474781      0.15187079012626
  C   -0.26172287330270      1.42310596409071      0.39839244803260
  C   0.06844221940007      2.76596231604280      0.68760650692818
  N   0.35644143607839      3.86246502718958      0.93358803967157
  C   0.80433489674841      0.49103638837806      0.11416391323731
  N   1.97728061573372      1.02717466607480     -0.03239313568188
  C   3.16642713086829      0.45137755516917     -0.31908704232549
  N   4.06274604947326      1.34849308517106     -0.79801030152093
  H   5.02489845942051      1.10039054609256     -0.93152336017974
  H   3.83483672742770      2.32226408687064     -0.70121728278539
  C   3.53673975514435     -0.86436584539870     -0.10056140582036
  C   2.65904613553600     -1.92511250108419      0.18452931434646
  N   3.21305659775486     -3.13062636282577      0.50730710724982
  H   4.13036188413570     -3.16394914989447      0.91191706642231
  H   2.56881974242921     -3.84757409014156      0.79147117047519
  N   1.33830386471603     -1.96002854601793      0.06384286218026
  C   0.46432806887833     -0.96700100387699     -0.06555042578620
  C   -0.87022935911721     -1.32372143791669     -0.26103019441298
  H   -1.09505654641843     -2.36694579597311     -0.43077752441990
  H   4.59117567931031     -1.10440603191244     -0.17608251210935
