28
Coordinates from ORCA-job ./opt_b97-3c_parallel
  N   4.45302162802727      2.51357758068618      0.39729079945559
  C   3.69891158480941      1.63302550691043      0.27482066951083
  C   2.86403735729926      0.52841416820468      0.12881225806861
  C   3.34085504204822     -0.83527595378304      0.03256990224910
  N   4.63460855194379     -1.15592276832272      0.08248611263413
  H   4.94081322840673     -2.10820294288731      0.01053910497814
  H   5.33548723500393     -0.44279355129395      0.18671312592319
  C   2.25142854238031     -1.71345213871759     -0.11614381578768
  C   1.09700221654633     -0.94229219100581     -0.11446057943676
  C   1.47349406235949      0.47824310225604      0.03849254268693
  C   0.50798466025153      1.46507887320789      0.02127763332588
  C   -0.84454535071755      1.16112590949668     -0.11088620869025
  N   -1.65535852991983      2.21958390056939     -0.26884183149942
  C   -2.96767031470116      2.26499883700312     -0.33725620229570
  N   -3.94166461012782      1.39312585207374     -0.08825626835026
  C   -3.75666529066368      0.09637959748564      0.12846845928720
  N   -4.87251788671638     -0.57958984522006      0.49364934821037
  H   -5.74677209539556     -0.08656354151376      0.46698505130281
  H   -4.88773766666109     -1.57942385815630      0.56211138967478
  C   -2.57128272990835     -0.67260931425243     -0.01178185331755
  C   -1.26421506199374     -0.26909803103806     -0.13988596025036
  C   -0.25230732879551     -1.27524711822496     -0.21161006083514
  C   -0.60942215359991     -2.63646887924361     -0.30771516243669
  N   -0.89267884297922     -3.76163858872694     -0.38444163555471
  H   -2.72357989047240     -1.74486890767983      0.03151592894607
  H   -3.34713334951721      3.24818365841810     -0.59930015741243
  H   0.77832270236299      2.51048790709838      0.05613593255046
  H   2.30803949073016     -2.78507513984388     -0.21072246393714
