24
Coordinates from ORCA-job ./opt_b97-3c_parallel
  N   5.46140978380034      0.40577954426257     -0.32863659004414
  C   4.30293084127591      0.46615029967268     -0.25645001947043
  C   2.89503349757929      0.47576461625014     -0.13919602438249
  C   2.23316788035626      1.69056212289258     -0.33252264762653
  N   0.97780474186051      2.02975864571681     -0.13160831328545
  C   -0.08987532306274      1.25751447162673      0.05383104949758
  C   -1.29381420887510      1.91580200909990      0.30300341503269
  C   -2.47898592020967      1.21414497482423      0.22931723679895
  N   -3.74585147106842      1.62948320601075      0.36999458280451
  C   -4.45604672904661      0.50442300285378      0.10251861993764
  N   -3.77877699011120     -0.62608993048241     -0.20731422708349
  C   -2.50323191336365     -0.22318126372251     -0.14033159730402
  C   -1.32299573152410     -0.93158828796739     -0.31238217067672
  C   -1.31392796060879     -2.32359496004038     -0.55423358639681
  N   -1.29770915657691     -3.46565670253588     -0.75670553787213
  C   -0.08663184282932     -0.25312437198886     -0.09995168923033
  N   0.96224030255844     -1.02297842595145      0.03452217093680
  C   2.25522296530413     -0.75302052927709      0.19652857648980
  N   2.98802426581332     -1.79289350422778      0.62694948825161
  H   3.98794435420164     -1.74141042557295      0.70802284536732
  H   2.53995254893936     -2.69057660237243      0.68816171103392
  H   -5.53622695558187      0.51096862626500      0.13469988109777
  H   -1.27586579704982      2.98528411233472      0.45154697593241
  H   2.86865723631895      2.51712194772931     -0.63312549220855
