25
Coordinates from ORCA-job ./opt_b97-3c_parallel
  N   -5.66192774924823     -0.93172146445999      0.20675971285761
  C   -4.51474037386283     -0.76321428293810      0.17154118975162
  C   -3.10846770292983     -0.56765425765344      0.14471103059731
  C   -2.31174035737354     -1.65117902029828      0.53545437225140
  N   -1.02852920536159     -1.80993285152677      0.31432091302124
  C   -0.05447945709694     -0.97513514545658      0.03090581550685
  C   1.19942013521589     -1.60424584790656     -0.26544471633010
  C   1.24297142774247     -3.00429295397142     -0.45604613320557
  N   1.29403144145117     -4.14866431969613     -0.63443354912591
  C   2.34524723096155     -0.83988735382776     -0.21980928764226
  C   2.28559537857992      0.57235136318292      0.19233628121681
  N   3.51995455876668      1.03124279381624      0.32046335080324
  C   4.28112802242918     -0.06259885735805     -0.02398891986028
  N   3.64155005498301     -1.19331669734127     -0.34498442508717
  H   5.35906505569605     -0.00007885906424     -0.03064052567765
  C   1.05477455352471      1.23553841496713      0.34409482149104
  C   1.05926356763086      2.59104258728083      0.74764843943714
  N   1.09567500231020      3.67542863678029      1.15755663632827
  C   -0.12465619431628      0.51332482077326      0.11503651517857
  C   -1.33474000198758      1.16738136396174     -0.25001881248517
  C   -1.25120329236537      2.49700570832053     -0.75687260593024
  N   -1.27036027315560      3.54251139661870     -1.25903740906170
  C   -2.63710803923836      0.67271651225520     -0.28491957697617
  H   -3.38584272111775      1.36796122978618     -0.63555413988549
  H   -2.81006215847960     -2.51021186207980      0.96910507820710
