22
Coordinates from ORCA-job ./opt_b97-3c_parallel
  N   4.16687374777660      2.21148111601641     -0.00246528378415
  C   3.47454627225438      1.27793581610174     -0.00169435308798
  C   2.67095523358453      0.13267062845462     -0.00095897765244
  C   1.27535244451169      0.04120012124582     -0.00045177871896
  C   0.99837176663592     -1.40444998292435      0.00008881804671
  N   2.14638029229145     -2.13503104844597      0.00004107850254
  C   3.12320065437125     -1.22508664322197     -0.00060914237389
  H   4.16048454210114     -1.52818066662138     -0.00084076671260
  C   -0.30123685879051     -1.81028804074940      0.00016667401043
  C   -1.32664676434061     -0.83415783845533     -0.00022198682794
  C   -2.62533945031278     -1.31705086942625     -0.00180691758622
  C   -3.85284738765289     -0.65059819917029     -0.00282981882663
  C   -4.05986177366214      0.70337730070229     -0.00156454633044
  C   -3.08102137215697      1.71718199924505      0.00107551518542
  N   -1.77640045291677      1.66810710884928      0.00147436821349
  C   -0.93528708768235      0.61403857340691      0.00018354011025
  N   0.34307991184977      0.98736076505369     -0.00008448460120
  H   -3.47416073837389      2.73086425051827      0.00274641804629
  H   -5.08653314922138      1.04976868416184     -0.00230873895126
  H   -4.73153743128413     -1.28285453848846     -0.00458807072492
  H   -2.69981527851525     -2.39881448296221     -0.00242849005925
  H   -0.55491392096704     -2.86244469389031      0.00014723652278
