23
Coordinates from ORCA-job ./opt_b97-3c_parallel
  N   -5.66995562128698     -0.96489893422638     -0.08302952206506
  C   -4.52109320617830     -0.79634830967284     -0.14355648857224
  C   -3.13591298777881     -0.53486831311620     -0.18145599597200
  C   -2.26274883704661     -1.57989477043879     -0.53226218057138
  N   -0.96828794753209     -1.66886077766144     -0.38810533783782
  C   -0.07912352219501     -0.69670832405362     -0.16980416919079
  N   1.14090093193056     -1.05771625188813      0.20401570693043
  C   2.07482086156810     -0.11396925717904      0.08551217400158
  C   3.43667986220365     -0.11124276746070      0.31010011000114
  C   4.24401054965839     -1.08686772085468      0.89837909400945
  N   4.94274819782895     -1.87845435781897      1.38557741260916
  C   3.89939725697667      1.14590153424397     -0.27122305606764
  N   2.96392936276633      1.89621620373950     -0.81052683169069
  C   1.79904543302988      1.19284984560895     -0.58875410023221
  N   0.60059867498742      1.60420393199836     -0.85777969074205
  C   -0.38976728754210      0.74745047097204     -0.44877007120393
  N   -1.53240573111602      1.31490231926888     -0.20202788477484
  C   -2.69974527701185      0.76956208015812      0.17138703409063
  N   -3.52425329934393      1.60912177426208      0.80784505644814
  H   -4.45255841800081      1.33360836421516      1.07694150658549
  H   -3.26417342570990      2.57737399314188      0.87651386333340
  H   4.93465521614853      1.45941233677904     -0.27491978726624
  H   -2.73946891255371     -2.48406414381631     -0.89742639051941
