25
Coordinates from ORCA-job ./opt_b97-3c_parallel
  N   5.49922633376883      1.12662118735604      0.05182926436017
  C   4.36911808874476      0.86387435815756      0.04613577176659
  C   2.98455418951245      0.54390012275849      0.04536986341085
  C   2.10286500988062      1.60648582518362      0.21486338933439
  N   0.78223102129930      1.62912930657841      0.11301891960750
  C   -0.10995205464953      0.66979735779596      0.01452454622428
  C   -1.45173600430345      1.16642114566799     -0.11856457382803
  C   -1.65992516749526      2.56367343950862     -0.22741683654323
  N   -1.86752770598115      3.69942700304291     -0.32787304727136
  C   -2.52088725967961      0.29808227144582     -0.07458337597003
  C   -2.29410269501908     -1.14706688242264      0.10537668980212
  C   -3.55666967318840     -1.69830190055456      0.15113351017745
  C   -4.44909180430714     -0.59613633474311      0.00174189074393
  N   -3.84341115773541      0.59087871688458     -0.13417027407540
  H   -5.52876301980065     -0.65433684579631     -0.00915442485093
  H   -3.82481916483280     -2.73475098804863      0.27052513801696
  C   -0.99658732776379     -1.64983598725635      0.15007557065889
  C   0.10017805341504     -0.81223733760914      0.07188249082604
  C   1.39836568316099     -1.39546065686909     -0.06827368597352
  C   1.44439869791398     -2.81596034414099     -0.19642545908613
  N   1.51051340906811     -3.96953285096654     -0.29712469317079
  C   2.65031432945416     -0.81136034305295     -0.11757594566086
  H   3.48125389082071     -1.48656489127847     -0.25894454505360
  H   -0.84638870307505     -2.71808174943343      0.21617532901782
  H   2.54594623009232      2.57857841909222      0.39727072153690
