26
Coordinates from ORCA-job ./opt_b97-3c_parallel
  N   6.62688980632426      0.07558910226949      0.09315350296550
  C   5.46651162474389      0.04735589183986      0.06391265787795
  C   4.05043287862911      0.01201923601345      0.03078022199584
  C   3.42082278418497     -1.16114370380771      0.48086084113667
  N   2.16693963531704     -1.52670315958591      0.35363369476623
  C   1.10069283329174     -0.79926799035318      0.02011674481781
  C   -0.10033355956360     -1.49602649155326     -0.13570880467603
  C   -1.27782332233000     -0.78565160927937     -0.15445251158693
  C   -1.20953639356477      0.68058025676605      0.04504494909634
  C   -2.51605507835717      1.15973913399626      0.16349743837903
  C   -2.97241640951741      2.46418651229344      0.35998360629572
  N   -3.44802831602130      3.51330932126965      0.52262908900725
  C   -3.39498193253739      0.03445416287530      0.01494023677759
  N   -4.71575579552310      0.09646859403849      0.06205014006912
  H   -5.27725707454732     -0.73037728803274     -0.05354036056392
  H   -5.18511751883944      0.97389533119121      0.21306321328128
  C   -2.62718492438016     -1.15575409161735     -0.18680679606975
  C   -3.18431856265097     -2.42589485723082     -0.33657420010899
  N   -3.69779747607141     -3.46392295001374     -0.45678621067735
  N   -0.08277343059971      1.37760548230278      0.02979821273928
  C   1.06203198974177      0.70825094548467     -0.08597269664515
  N   2.11341064952647      1.45623703854725     -0.42035817283098
  C   3.38411688093471      1.14063396248302     -0.47902370266051
  H   4.01283517786265      1.90304835201914     -0.92793111127839
  H   -0.07662901147144     -2.57653389451012     -0.12857580191716
  H   4.06525700121865     -1.91523386570592      0.92012815050957
