31
Coordinates from ORCA-job ./opt_b97-3c_parallel
  N   5.98909500154717      0.37397047659309      0.08409288426628
  C   4.83165815234426      0.26030829219002      0.02499025729087
  C   3.43040901483759      0.12407240554654     -0.03083394604038
  C   2.93133272679342     -1.20381270302064     -0.05549119781738
  N   3.85305999311242     -2.21635208715968     -0.11849109354873
  H   4.81505171046454     -2.02235426865904      0.09882093785324
  H   3.54392002228703     -3.14136852391935      0.11655884161357
  C   1.59533991619892     -1.60339955467331     -0.05685990544286
  C   0.38154832701542     -0.92237337730214     -0.03442104895960
  N   -0.68841634621718     -1.73836394138008     -0.01985705781852
  C   -1.90386535510231     -1.20128418047972     -0.00736217262716
  C   -2.14152621710844      0.26207606185922     -0.01283023185424
  C   -3.53096683420024      0.46329361301148      0.00329147835995
  C   -4.24121475492731      1.65898623724730      0.00627696642373
  N   -4.87681653037057      2.63784417856770      0.00980988001950
  C   -4.13247970776907     -0.84072886258464      0.01787050390123
  N   -5.45470088020694     -1.03907410685892      0.03683043422943
  H   -6.08830041691950     -0.25921307396914      0.03128664383463
  H   -5.84480114677770     -1.96219746856882      0.03641134183359
  C   -3.13415412518671     -1.84243215534862      0.01160094604206
  H   -3.29971504378040     -2.90692555971407      0.01944542786173
  C   -1.05698110044447      1.09311643140983     -0.02933800760269
  C   0.24608976591331      0.55379024474638     -0.03848012951499
  C   1.29554476801514      1.45886301625739     -0.05690144962494
  C   2.68891127005830      1.32801027265169     -0.04930627299968
  N   3.39360428183031      2.50329401203560     -0.10511833274849
  H   4.37636331036674      2.49534259081622      0.10668164787865
  H   2.91553881143845      3.34670647594147      0.15327702245274
  H   0.96724172921898      2.49305035607587     -0.07991706513646
  H   -1.18319671456919      2.16847520022238     -0.03466130445036
  H   1.44193997103802     -2.67570302153394     -0.07466162107480
