23
Coordinates from ORCA-job ./opt_b97-3c_parallel
  N   -3.50147012984258     -2.76626018784111     -0.16102214238125
  C   -2.99372499199531     -1.72268956361184     -0.12739695896135
  C   -2.42210583936133     -0.42446791045662     -0.08501096691471
  C   -3.30447556602737      0.61895656758984     -0.56028088748283
  N   -3.25750852137312      1.88713193099665     -0.34406526970492
  C   -2.28048779806159      2.48331920137095      0.40616206714860
  N   -1.03544301324582      2.18882740708554      0.53957706521731
  C   -0.38944879602633      1.03632241937175      0.20261037301647
  N   0.90906080351750      1.13551575524188      0.04857026527124
  C   1.62882199985448      0.00525543587603     -0.01314373653454
  C   1.06783926600092     -1.33107484634790      0.25215055917201
  C   2.15127699012124     -2.27665512768556      0.23392461862329
  C   3.28656260719489     -1.58481524772573     -0.04878644455326
  C   2.98835553302349     -0.15829407808539     -0.20546827936499
  C   3.93546775130807      0.83026199166322     -0.48419724070609
  N   4.74980040307507      1.62728907196971     -0.71777901286250
  H   4.27919235143153     -1.99399365886399     -0.14876895168104
  H   2.06429346667705     -3.33760363840165      0.39887421191601
  C   -0.27434555704980     -1.45336365303403      0.39079354541953
  C   -1.07742398636191     -0.28395122317484      0.22136723980549
  H   -0.75049846629915     -2.41526559004666      0.52459666560203
  H   -2.60407175078244      3.41004041604052      0.86832703318395
  H   -4.13542800227817      0.27022855526966     -1.16797302352825
