25
Coordinates from ORCA-job ./opt_b97-3c_parallel
  N   -1.54389928655227     -4.10728557103812     -0.00055191179461
  C   -1.61884996788497     -2.94917307489538     -0.00003792402519
  C   -1.78143209826383     -1.53297444833673      0.00033175629783
  C   -3.13715213935680     -1.17220508742643      0.00136423145358
  N   -3.74138314989799      0.00161600748369      0.00208642359148
  C   -3.13616767923662      1.17493005461738      0.00167867352928
  C   -1.78014672307829      1.53456519170383      0.00031463907761
  C   -1.61638221395043      2.95062745862609     -0.00009683707546
  N   -1.54047125807922      4.10867715460184     -0.00088832290324
  C   -0.59604648991721      0.74656407921705     -0.00064492725998
  C   0.61850518233484      1.42747205715836     -0.00176823839532
  C   1.81691622168543      0.73353472928866     -0.00253925160699
  C   1.81630109424609     -0.73496347911334     -0.00220549158257
  N   3.07496066060469     -1.17352814980311     -0.00305875237310
  C   3.78333075414143     -0.00153960227395     -0.00388204666671
  N   5.10972998383540     -0.00209394075817     -0.00490934871497
  H   5.61062620641815      0.86767197731920     -0.00550552452069
  H   5.60990073338674     -0.87227743233900     -0.00509965300805
  N   3.07594284972537      1.17104330937310     -0.00361569779821
  C   0.61730763027950     -1.42789237065739     -0.00116251073403
  C   -0.59667225644708     -0.74596394373541     -0.00042454913894
  H   0.63427798438340     -2.50702234596165     -0.00100327308490
  H   0.63638864053955      2.50658719298411     -0.00198599027612
  H   -3.82208276671779      2.01498160586980      0.00244139862399
  H   -3.82377092499806     -2.01168192880441      0.00167834418534
