30
Coordinates from ORCA-job ./opt_b97-3c_parallel
  N   -2.99131384210049     -2.49348073791731     -0.00201692544138
  C   -2.57269340642796     -1.14405524781655      0.03481709618334
  C   -3.39560441452838      0.00236004195555      0.04259379267926
  C   -2.59016410841640      1.14266538218889      0.08007411713026
  N   -3.00307472066084      2.49381692991879      0.07986621642943
  H   -2.83413251486467      2.94413547977786      0.97095744313787
  H   -3.98687259328806      2.58087721586513     -0.12980371795281
  C   -1.23718450621138      0.72499196997317      0.09496936723539
  C   -1.23447473092094     -0.72584806737953      0.06791241880184
  C   -0.04031972712558     -1.44034793271605     -0.05738272794472
  N   -0.08658817694000     -2.81204468481923     -0.17826167023362
  H   -1.00407568738185     -3.16324417696860     -0.42216843030795
  H   0.64585879495847     -3.22599042298800     -0.72798429653277
  C   1.19282715972644     -0.74228326084149     -0.02517693181931
  C   2.34097767810793     -1.48455325921693      0.24803981297535
  N   3.64078096139677     -1.21276747342434      0.17682255496709
  C   4.12406663872823     -0.01802149146981     -0.18194657967637
  N   3.64049618204865      1.19402104230802     -0.09831913179616
  C   2.33828668065946      1.49976194013543      0.10249897743895
  C   1.19110287725788      0.75396226240906     -0.02925691020368
  C   -0.06238787159356      1.45189787356648     -0.03226391754840
  N   -0.11681931358774      2.82150031982146     -0.15260580037354
  H   0.61195846073332      3.24411375761492     -0.70029438276069
  H   -1.03833466877338      3.16824358009454     -0.38918353566411
  H   2.20650692668060      2.54433874290632      0.36358884672968
  H   5.14740117268054     -0.06213566676550     -0.55116072691834
  H   2.15554218824333     -2.50427773678102      0.57674102467955
  H   -4.47677986860875     -0.00440193151516      0.05775393239124
  H   -3.97051629971540     -2.57283221245059     -0.23438584542835
  H   -2.84342201617717     -2.96227205757515      0.88292327044331
