30
Coordinates from ORCA-job ./opt_b97-3c_parallel
  N   -4.58533263007889     -0.34542872789021      0.88844871581760
  C   -3.32460474609607     -0.22719073656846      0.36493247372102
  N   -2.93686090303360      1.02563477730099      0.19122947115897
  C   -1.74826332925390      1.44964785750162     -0.21938545622200
  N   -1.78099884547222      2.74094323821117     -0.65488266713232
  H   -2.69460723355789      3.15166592908714     -0.72838646049178
  H   -1.07898253964999      3.06717184581764     -1.29090793350551
  C   -0.47418757595911      0.79748442097746     -0.14340526035939
  C   0.65190801523580      1.62477077801082     -0.04115093157564
  C   1.93079978433426      1.11438763198578      0.03344841269308
  C   2.11326736921872     -0.33364821213682      0.01939720009809
  C   3.49986490734929     -0.52199311582584      0.18183121666597
  N   4.20623191920981     -1.71883988103841      0.18348222123045
  H   5.15269526777486     -1.57297695891656      0.50216100956108
  H   3.76402759216490     -2.45085253343590      0.71816373568016
  N   4.14337728975597      0.66130060894791      0.26362148933333
  C   3.21526580665264      1.64662189726172      0.18373603191560
  H   3.50775343016955      2.68436629813528      0.23490760348046
  C   1.01568530066259     -1.15760225233060     -0.09603209787529
  C   -0.28900759785537     -0.65584653337125     -0.18699278415082
  C   -1.35450252189315     -1.60132018654560     -0.34500657839672
  N   -1.00877913973395     -2.88265905284437     -0.71894011664832
  H   -0.22083496854297     -2.97320081626560     -1.33443080768297
  H   -1.77134925375641     -3.48855836246123     -0.96457260463172
  C   -2.69810020232796     -1.40805162636049     -0.05726425451331
  H   -3.34298941153519     -2.27516180016900     -0.13883914063335
  H   1.16215976608183     -2.22863325561053     -0.05300089029221
  H   0.51073169341711      2.69274527605039      0.05704359552242
  H   -4.81847365215229     -1.19284872810865      1.37329310697281
  H   -4.96981121922840      0.50054630829168      1.27207189756029
