31
Coordinates from ORCA-job ./opt_b97-3c_parallel
  N   -6.02163958158165     -0.48801296049558      0.28793836605896
  C   -4.86355350985607     -0.43353576897076      0.17670161942360
  C   -3.46494194603753     -0.37811727197873      0.03990119683508
  C   -2.88451125037263      0.90622500364599     -0.17925002173455
  N   -1.61365859222031      1.26555029996535     -0.11524677163742
  C   -0.48486315610906      0.58996008155007     -0.02396122924778
  C   -0.32297609553888     -0.88637763574485     -0.11443891269880
  C   -1.38118811388624     -1.77638399358103     -0.06162866321255
  C   -2.77043585354168     -1.60506246059088      0.06577954466564
  N   -3.49956124778831     -2.74828652301595      0.17756092505770
  H   -3.03631171126603     -3.60804581061673      0.40355014889855
  H   -4.48208863376860     -2.70621677809083      0.38376970434580
  H   -1.07764908681354     -2.81688376684428     -0.09579117574507
  C   0.97214813940807     -1.43539890013577     -0.18756514772631
  C   2.08210051104418     -0.63822567531693     -0.08786250970755
  C   1.94514590371511      0.81640402093635      0.09987133882844
  N   3.12750495155289      1.42648415219630      0.20002867124912
  C   4.04750406897087      0.42913987385007      0.08515942533137
  N   5.34582944073102      0.70189883474625      0.14295466028695
  H   5.64151781566390      1.65399135487118      0.26698595726682
  H   6.03622847272890     -0.02225896410250      0.05724185950629
  C   3.46701397867505     -0.86867965557332     -0.09323077718475
  C   4.16623744855236     -2.06403217345303     -0.22906261224252
  N   4.78899458191241     -3.04344683366548     -0.33812565314145
  C   0.67449783878269      1.39399771710437      0.12850690942500
  C   0.52870467789768      2.79546009894453      0.24450437885807
  N   0.42446519162192      3.94666949218083      0.34478993330810
  H   1.07913500259369     -2.50765331405141     -0.28565331403145
  N   -3.71456752474790      1.94127823787044     -0.44228391254747
  H   -3.31296830143704      2.86172012351887     -0.41399757915482
  H   -4.71353699388517      1.84625207134742     -0.42459163573302
