29
Coordinates from ORCA-job ./opt_b97-3c_parallel
  N   5.23018722982915      0.74393155306852     -0.67083541852843
  C   4.21165577991005      0.24634228216036     -0.40198164143843
  C   2.95090384666751     -0.30383489946548     -0.09443693158506
  C   2.96359704373454     -1.58347079626128      0.51558472019038
  N   2.02811309486421     -2.48412429235525      0.60818004899512
  C   0.76659852066479     -2.31988573702040      0.17941639670631
  C   -0.00377777933612     -1.18543620542978     -0.00577085106941
  C   -1.39341549108070     -1.44435086993240     -0.18045061209645
  C   -2.29373066623249     -0.43245727243593     -0.11969393540621
  C   -1.86668189788334      0.92050012907070      0.18715363739439
  C   -3.03556574951730      1.64497144747898      0.33998509770137
  N   -4.15390355833416      0.87354684349064      0.12509307577287
  C   -3.73389917348270     -0.35698937610714     -0.14731356630264
  N   -4.59853527515551     -1.39637386589776     -0.33841377387719
  H   -4.29271107855897     -2.13953218334469     -0.94205885191568
  H   -5.55230352834351     -1.11358417610004     -0.49467061033198
  H   -3.16344867211767      2.69123953715379      0.57565625618586
  C   -0.49531608033691      1.22268390274519      0.24190709084234
  N   -0.13002688333630      2.56251370733595      0.41761027932446
  H   0.62574515946291      2.70223811974809      1.07113960934258
  H   -0.91052987428437      3.14982206393807      0.65950955803996
  C   0.45681157245085      0.20890130936923      0.05810464182956
  C   1.82161105269575      0.52657453847158     -0.31341869984769
  N   2.05392884982900      1.70395864376166     -0.91004242909191
  H   2.99208915989814      1.97527804779322     -1.15317176009572
  H   1.31397129501907      2.38460106933732     -0.98888303777114
  H   -1.70802179685484     -2.47621809023754     -0.27763080635620
  H   0.24597575717041     -3.26238568648731      0.03965838927889
  H   3.92854324875825     -1.88901591304791      0.91179959691044
