29
Coordinates from ORCA-job ./opt_b97-3c_parallel
  N   -5.91976572765578     -0.18014897003747     -0.62882875163495
  C   -4.78029064422870     -0.12207239835649     -0.39570876136654
  C   -3.40736357508532     -0.01923162782142     -0.10977085159810
  C   -2.71692121968660     -1.22118260916760      0.31455414108609
  N   -1.43889870082788     -1.47994658191890      0.29096300903615
  C   -0.36470781760260     -0.70345139579751      0.09947997115730
  N   0.76603321233589     -1.36004442298429     -0.11463141449219
  C   1.91270131971512     -0.67771274789057     -0.12065639395736
  C   2.01264881403209      0.75212769553044      0.18386097002367
  C   3.41631630193185      1.11135762295357      0.15657538260371
  C   3.91160631455442      2.39795504222978      0.39390661115103
  N   4.26520446956082      3.48777494752271      0.59624106554346
  C   4.11431675425459     -0.03080560822722     -0.16295487563945
  C   3.21040566154553     -1.14120410960162     -0.33820052926314
  C   3.59706254182265     -2.44700022503071     -0.66000099179549
  N   3.94267359585795     -3.52431388304439     -0.92809771943490
  H   5.18430221742830     -0.10055515959316     -0.27105671328561
  C   0.87907974138463      1.45693269106717      0.36186593333694
  C   -0.38166022884039      0.77836587545215      0.22801531012480
  C   -1.48538319349125      1.57169955981656      0.12048998479129
  C   -2.84766422000432      1.25589319658907     -0.16586729193248
  N   -3.63081873746049      2.31785067207126     -0.46276116225454
  H   -4.59201548362990      2.19145449791189     -0.72883405353505
  H   -3.22102942512198      3.21146727286602     -0.65802449681218
  H   -1.29428386878609      2.63681900791478      0.19870244514094
  H   0.89207687825961      2.52604225784257      0.53476470667570
  N   -3.49864832304339     -2.24257922363180      0.73651672780319
  H   -4.50019575748308     -2.20664886018074      0.68468410407899
  H   -3.05618587143568     -3.13823945048408      0.84232766514872
