25
Coordinates from ORCA-job ./opt_b97-3c_parallel
  N   -4.30638087924026     -2.41955658742006     -0.72406295028725
  C   -3.76946768558791     -1.42522890640918     -0.44631014749512
  C   -3.12437330664767     -0.23209403282449     -0.11235187625187
  C   -1.76313621138367      0.03433460079724     -0.09127737842085
  C   -1.65869586892407      1.44891356786659      0.33259516893124
  N   -2.90039463612786      1.98385187244688      0.57980069712652
  C   -3.74448913285649      1.00322442401322      0.31656732420163
  H   -4.81140266904699      1.14390189946844      0.42210728147884
  N   -0.53983264098482      2.10867988326727      0.40055934521491
  C   0.61094626515343      1.44703418304657      0.08602884862927
  N   1.62031383865959      2.26365246728419     -0.09763967351602
  C   2.89500443658233      1.98714466514149     -0.37101256560214
  C   3.62292196424985      0.84186063846866     -0.20481619432305
  C   3.15943197664772     -0.45645803470654      0.09871375025955
  N   4.09909033290651     -1.39007209715110      0.37514630718716
  H   5.07190471246768     -1.16288793821913      0.29674711183288
  H   3.86243630744721     -2.36343388808985      0.45672774505699
  C   1.79760541226695     -0.83672617244638      0.05000285416979
  C   1.59789933797447     -2.23363481085903      0.17565994612122
  N   1.52751935488593     -3.38788687595355      0.29225796453206
  C   0.62499628449160     -0.04140392663119     -0.09619830343695
  C   -0.59751002192256     -0.68572071910371     -0.26137379675839
  H   -0.63560567692154     -1.74953731717532     -0.45151744850132
  H   4.69473216556503      0.94690925453770     -0.32797673098825
  H   3.45797425554924      2.85922548485163     -0.68874508595833
