25
Coordinates from ORCA-job ./opt_b97-3c_parallel
  N   -4.82219192341645     -1.31862910618006     -0.20591632001019
  C   -3.84648499349728     -0.69217612668271     -0.10891435015749
  C   -2.62637014715788      0.01504731354492     -0.01240618464690
  C   -2.73817692515777      1.37040369117734      0.33777858445581
  N   -1.87711993942030      2.35912242003290      0.28376646080350
  C   -0.58840535711567      2.23937472931813     -0.03170371027260
  C   0.27151702973987      1.14740945125509     -0.10653337864774
  C   1.64531873019478      1.49670791565761     -0.19735341234402
  C   2.62631436484861      0.55416077891438     -0.09582431830615
  C   2.26424620995434     -0.84476517679585      0.11431399676737
  C   3.47225420442448     -1.51621053327008      0.24277658171042
  N   4.53231445426233     -0.65707103741237      0.12056915627065
  C   4.04465528808305      0.56877746429733     -0.07630243152878
  H   4.69688104676328      1.42070449951474     -0.19609896833805
  H   3.63986387416504     -2.56927747505475      0.40821622552779
  C   0.92477591643027     -1.21146438912823      0.10775295629626
  C   -0.09065865487274     -0.27250721939129     -0.03354336120207
  C   -1.43637769431625     -0.74015873981399     -0.22782119273324
  N   -1.61031776389200     -2.01996843001089     -0.58569606965144
  H   -0.83847132577859     -2.58205773177667     -0.88785200625162
  H   -2.53452034328626     -2.40286265211391     -0.69551704725553
  H   0.68532423832024     -2.25579622948787      0.26079281711658
  H   1.89623724714127      2.54567962924489     -0.29287042111115
  H   -0.10973466621508      3.20142771381255     -0.19049689852113
  H   -3.73488675570186      1.67095389444940      0.64844279523026
