24
Coordinates from ORCA-job ./opt_b97-3c_parallel
  N   -1.65007198849992     -3.28617266408386     -1.16174573234205
  C   -1.76272007455311     -2.24027545496300     -0.67127542973479
  C   -2.02949627083699     -0.93106376010574     -0.18240412177841
  C   -3.39126788531128     -0.69463568241377     -0.02510941444264
  N   -4.04923936480417      0.36718043295860      0.44488428070936
  C   -3.56412963878763      1.58036293870179      0.52204629401904
  C   -2.32262273505744      2.08164571109517      0.09557808215013
  C   -1.12708122418868      1.42167415218364     -0.13319952521009
  N   -0.09655925765287      2.28455311095030     -0.38410756972701
  C   1.11084430598809      1.80645132579674     -0.33838947671727
  N   2.24863927131258      2.55352700037217     -0.52652059529048
  C   3.23753947526262      1.71418211116196     -0.30591298843142
  C   2.81827537345135      0.36596915467287      0.04690812377643
  C   3.68768907845961     -0.69364998548409      0.32827114965884
  N   4.45800721378969     -1.53471268406930      0.55164128496963
  C   1.43913028313858      0.40917505175020      0.00785472928396
  C   0.38184990637405     -0.50030203532632      0.16164401891485
  C   0.67394008213615     -1.83452340765568      0.53629241306075
  N   0.96852384464165     -2.88550775121151      0.92853024687869
  C   -0.92852739106428     -0.02922965646357      0.00612128178947
  H   4.26943335005702      2.02603793499820     -0.38522860432736
  H   -2.23745435262239      3.15884540082297      0.03551713592219
  H   -4.25133880844271      2.31484763060064      0.93027765422134
  H   -4.03543576688567     -1.53263258848163     -0.26321956885958
