25
Coordinates from ORCA-job ./opt_b97-3c_parallel
  N   1.99408851108244      2.89758534029064     -1.26460099636227
  C   1.87971686894385      1.86917138542241     -0.73836685975164
  C   1.82638671392990      0.55670618008379     -0.19090927519944
  C   3.07522646400964     -0.00735539662004     -0.02608836029566
  N   3.44072152130806     -1.20233399359708      0.47663348491361
  C   2.66945568467001     -2.24811119752670      0.52346073112630
  C   1.33913610453826     -2.42134653940202      0.06361597754491
  C   0.35109524936094     -1.48564566823417     -0.13279891192260
  C   -0.96068495806378     -2.00671701352555     -0.38239135884125
  C   -2.05624078085102     -1.22103121126333     -0.25612525525557
  C   -1.90441074425858      0.19195689694620      0.12591221701418
  C   -3.15926592891870      0.71831521861769      0.26625299608752
  C   -4.11252162844502     -0.32611063524462     -0.03601042637933
  C   -3.46187291362961     -1.48904602115299     -0.34850145624944
  H   -3.90609186319349     -2.43606724488122     -0.60666305152281
  H   -5.18363570013380     -0.19333806117715     -0.01201971692298
  H   -3.40242630557579      1.73125111121481      0.54337646246474
  C   -0.60386061290251      0.74832568942557      0.23383057568696
  C   -0.53319236948114      2.11533214970102      0.60153881428833
  N   -0.58115506039857      3.21123255479728      0.97974546252158
  C   0.52584045038668     -0.03360304605153      0.03965514871533
  H   -1.05511557197632     -3.06580943178679     -0.58508828823444
  H   1.03226521447194     -3.45683102858853     -0.02902175884760
  H   3.13450387595806     -3.13719851471323      0.94152076108694
  H   3.91538327695513      0.62516077044503     -0.28543209367204
