25
Coordinates from ORCA-job ./opt_b97-3c_parallel
  N   -5.12548664732183     -1.16768018300153      0.23342683771441
  C   -3.97836651168243     -1.02385051871566      0.10518643050403
  C   -2.59432068345438     -0.78747253633908     -0.03757663834832
  C   -1.79597485768890     -1.92805994356825     -0.35356068170255
  N   -0.52115454911974     -2.12362796885717     -0.34779913242936
  C   0.48149001396403     -1.22988160611508     -0.13635452168391
  N   1.65452243877102     -1.76795467194338      0.13253099342560
  C   2.71941513083795     -0.95290510150161      0.18814410187016
  C   2.60450098740255      0.48080980708840     -0.19581639431594
  N   1.45929417367958      1.03935975378114     -0.43193743225380
  C   0.34646463926138      0.23736270346645     -0.27681496082667
  C   -0.81538494454588      0.97983111485637     -0.14774632254567
  C   -0.65655200458906      2.39352490797424     -0.20163871979375
  N   -0.71774613213547      3.55347306052526     -0.21092948862527
  C   -2.17469572481432      0.54160528270625      0.09410835766789
  N   -3.07118664582900      1.49000373871091      0.40956102619953
  H   -2.82033934715134      2.46381586301757      0.40849381756315
  H   -4.04382334325496      1.25548075008959      0.51272366373481
  C   3.92870894595423      1.04214689618079     -0.21716980525742
  C   4.76976872944149      0.03727597343072      0.16231717620397
  C   4.04294847425066     -1.20449769320859      0.40487164905205
  H   4.48580975419836     -2.15057864340577      0.66856232843204
  H   5.84029329256534      0.13073139512147      0.26802107624931
  H   4.17546897450240      2.06382493870646     -0.44902085070208
  H   -2.38201131174083     -2.81147128679851     -0.59375481313267
