35
Coordinates from ORCA-job ./opt_b97-3c_parallel
  N   5.07394318035976      0.14723784957915      0.66109362281001
  C   3.72805723464434      0.10961076440252      0.33979876256396
  C   3.18392457448852      1.32571963171067     -0.11425888702886
  C   1.86035460899321      1.63640512264152     -0.32644696410357
  N   1.62270543929291      2.93852151341690     -0.73550354148268
  H   2.43617258112397      3.45946272866417     -1.01323058197653
  H   0.84276000515783      3.06678393865184     -1.35629203552154
  C   0.68067360066851      0.82920544811206     -0.09946608450128
  C   -0.50308271304563      1.54515461279930      0.04350188707078
  C   -1.73876022844794      0.92674337161430      0.04564607620032
  C   -1.80906609253050     -0.50395841979802     -0.14389077220416
  C   -3.18162882864386     -0.81441925243132     -0.07049241823672
  N   -3.76074220136622     -2.09542571531978     -0.16140005061221
  H   -3.69044644026272     -2.47845309570804     -1.09693885320923
  H   -4.74263879910415     -2.02780139713942      0.07236187938675
  N   -3.92059409727536      0.28476622872964      0.16298277855724
  C   -3.06241405857204      1.33551090923511      0.25694120659407
  N   -3.54759782471809      2.62352239555417      0.45211286371146
  H   -4.49839320626708      2.60266653715418      0.78893172374350
  H   -2.97092933827201      3.18328263957041      1.06117333478592
  C   -0.65894702931307     -1.28145702622136     -0.13637025501002
  N   -0.84733072592336     -2.66075930241272     -0.07114469177680
  H   -0.18066445548305     -3.14925675788006      0.50696714642506
  H   -1.80026857233441     -2.88717102330799      0.19276489708284
  C   0.64108320163799     -0.65841285599616     -0.14029955462485
  C   1.80242292544967     -1.46492374638650     -0.10404966727422
  N   1.72804374322758     -2.81759800722106     -0.42014084612335
  H   2.61299794400756     -3.21422806612219     -0.68523372319186
  H   0.98293151275347     -3.08456416220739     -1.04428670354806
  C   3.09947549595804     -1.11212614206484      0.34171299598776
  H   3.72079682043366     -1.95952738398786      0.61203719853949
  H   -0.44923015692592      2.61545480779770      0.18441957288443
  H   3.90895837324227      2.09758390928800     -0.34644735281454
  H   5.42678418904299     -0.64714060319344      1.16688793803776
  H   5.40522665360321      1.02036011977622      1.03466879275948
