27
Coordinates from ORCA-job ./opt_b97-3c_parallel
  N   -1.93766094116013     -3.54463009041028     -0.00182043291756
  C   -2.07312648157805     -2.39187937206568     -0.00117462436596
  C   -2.30333271165479     -0.98553856290447     -0.00045825004487
  C   -3.68287219005425     -0.68457196696459     -0.00018158520902
  N   -4.34295764798195      0.45576616361171      0.00044414682194
  C   -3.78233859693848      1.66249947992036      0.00097690560521
  C   -2.45561527515618      2.05719054800728      0.00102296789968
  C   -1.25412388501603      1.33662972329569      0.00055207400500
  C   -0.07919019977980      2.08646788351307      0.00078632365588
  C   1.17193974250675      1.49159708778812      0.00038812222897
  C   1.25185534634510      0.02135459647036     -0.00029919490009
  C   2.60691104860754     -0.32419794533096     -0.00058267463385
  C   3.19823492349666     -1.58626392974858     -0.00123256286649
  N   3.75951268148866     -2.60735878348306     -0.00173861547063
  C   3.35339812848969      0.90626715555372     -0.00008936398680
  N   4.68828607997163      0.95641295667728     -0.00018388399620
  H   5.23171453573792      0.11069678989522     -0.00065988133088
  H   5.18040713629915      1.82977285481491      0.00012460246465
  C   2.46225403944809      2.00336412349786      0.00050035169625
  H   2.74672147529730      3.04311334249706      0.00095606614486
  C   0.10003038370548     -0.73918495171910     -0.00054835500662
  C   -1.16320547103717     -0.14645025148137     -0.00015590793174
  H   0.18262797039156     -1.81656773859762     -0.00106084866832
  H   -0.15808088491553      3.16567967302239      0.00129969346823
  H   -2.32551889693177      3.13393594247064      0.00152577544168
  H   -4.50493015682011      2.47238435089113      0.00145101675466
  H   -4.32515718426132     -1.55879803172109     -0.00055339345798
