24
Coordinates from ORCA-job ./opt_b97-3c_parallel
  N   3.47181241075334      2.19417607824253      0.04716337671088
  C   2.56745661373760      1.16426860917729      0.01479110099381
  N   3.12736907339285     -0.03501260737977     -0.00372351446786
  C   2.50232958219339     -1.20696440284182     -0.01818784763856
  N   3.35229231465319     -2.27783795784956     -0.04301558544648
  H   3.00782708612542     -3.18756186091697      0.20172176540323
  H   4.31458447346399     -2.08693946449398      0.17179613312826
  C   1.12777344611333     -1.50810431301149     -0.06811885315519
  C   0.00172964976220     -0.70330684068697     -0.04635862177776
  N   -1.15794478526678     -1.39661105883720     -0.09601340625346
  C   -2.27751278505045     -0.69859917303092     -0.05486662003186
  N   -3.53290783607441     -1.17172638036774     -0.09124021424410
  C   -4.27103640058239     -0.03591471149167     -0.01713943403649
  N   -3.63984289202064      1.15394895051245      0.06487506864919
  C   -2.34135615193573      0.78083225838480      0.04383767037785
  C   -1.17817391825556      1.49024439525567      0.08697391340376
  C   0.04779210887444      0.78492248072947      0.03679893239601
  C   1.20621887469495      1.53490974511851      0.06475757529712
  H   1.04244081715878      2.60483684052458      0.13511726389226
  H   -1.17583819073552      2.57099858428897      0.15035307944407
  H   -5.35156182068490     -0.08514571083995     -0.02386350812163
  H   0.87755262662975     -2.55964128378311     -0.12983067942008
  H   3.17919162605045      3.11089944247943     -0.23720066073910
  H   4.41961937100270      1.94582531981750     -0.17570330776387
