24
Coordinates from ORCA-job ./opt_b97-3c_parallel
  N   4.81783551756052      0.05196737930218     -0.01611583972503
  C   3.46871420321259      0.00591325288125      0.01129263387747
  C   2.62344335380061      1.15160567704807      0.00713683068090
  C   1.32117247300067      0.69059074821939      0.00443134344828
  N   0.18926026020655      1.39204459946332      0.00413118029502
  C   -0.97764014089195      0.73452721304840      0.00272385075831
  C   -2.09860065175892      1.57157469715512      0.00228005378467
  C   -3.45262092009561      1.27680085802016      0.00038150677230
  C   -4.05033729903516      0.03083654211999     -0.00099302850348
  C   -3.41692134543150     -1.21222024110204     -0.00055498809521
  N   -2.14039361874881     -1.54423680453214      0.00113092470528
  C   -1.04784212301833     -0.76696131138060      0.00218585440235
  C   0.16066066694064     -1.47199923212534      0.00338987853812
  C   1.36403234654331     -0.80085992654585      0.00360820170698
  C   2.69636521495841     -1.18336498707297      0.00682481386043
  H   3.08767813468890     -2.18857211165367      0.00336121687977
  H   0.10071637874631     -2.55171268161520      0.00303392751527
  H   -4.08145388172044     -2.07266834699856     -0.00161473175872
  H   -5.13381298648634      0.00219410220328     -0.00246039362624
  H   -4.11810950668816      2.13141024259655     -0.00000694733574
  H   -1.82944441056320      2.62025721322622      0.00314599078091
  H   2.94179989641617      2.18129930143725      0.00370860938411
  H   5.34574964633068     -0.78246380120683      0.16281087566426
  H   5.28763828973306      0.91898759961207      0.16885226099000
