26
Coordinates from ORCA-job ./opt_b97-3c_parallel
  N   5.13033263468445      0.42242847585176     -0.01084580410191
  C   3.79141697820968      0.25392459413141     -0.02767009626215
  C   2.83765161492678      1.29094286412095     -0.00005663211880
  C   1.58501913673807      0.68584837655903      0.00715137411118
  C   1.79281246428290     -0.79805811797488     -0.01532629242276
  C   3.14996513437297     -1.02752144471301     -0.03512307651226
  H   3.65696251461680     -1.97995124513078     -0.04711108675432
  C   0.66342222228895     -1.59811171192635     -0.01400884190702
  C   -0.60340376261525     -1.02433225265891      0.00720061070993
  C   -1.72251931035302     -1.87134748574751      0.00997245199548
  C   -3.07724279282991     -1.60646182355256      0.02131641913595
  N   -3.77466597484981     -0.47257348740485      0.02561130913994
  C   -3.24812607877604      0.74471881707952      0.04746043686173
  N   -4.18291793675623      1.75438287211851      0.11177461613390
  H   -5.11997603244565      1.46655266399453     -0.11225858660678
  H   -3.92238697600494      2.66626816096193     -0.21809316783795
  C   -1.89693837661935      1.15715531683573      0.05647681090358
  C   -0.70352099389117      0.45759880394256      0.02688437805774
  N   0.39108263186687      1.25476798812272      0.02723357485043
  H   -1.73658461017994      2.22832002682627      0.09042734266786
  H   -3.71271743803317     -2.48733602613156      0.01575921220155
  H   -1.48403374897188     -2.92972907083411     -0.00241708454845
  H   0.74997238101184     -2.67823168779808     -0.02768347834086
  H   3.03731830238694      2.34957271318121      0.01529707644466
  H   5.73064246574320     -0.35589997643427     -0.21202957676142
  H   5.51794698239694      1.33340013378074     -0.17423399493927
