20
Coordinates from ORCA-job ./opt_b97-3c_parallel
  N   -2.11451266399041     -3.34147793762265     -0.01203240756814
  C   -1.93220619414005     -2.19562383721094     -0.02342755409360
  C   -1.75547483708646     -0.78490975200275     -0.03685525017664
  C   -2.91828185895566     -0.06842695189962     -0.42745331996530
  N   -3.21825853648558      1.18774898925128     -0.22748889077898
  C   -2.36829686759556      2.08788376558954      0.28181700780280
  N   -1.06667390597582      2.14734309234168      0.19649810687836
  C   -0.17307850346506      1.18598200584219     -0.02701902481873
  N   1.04766993889030      1.61360456037505     -0.33900269095475
  C   2.02608432844655      0.72322296972484     -0.25475358824682
  N   3.31820756432473      0.91322937461353     -0.52611033591193
  C   3.86917787960748     -0.27552989016967     -0.16518990416633
  N   3.06318725685386     -1.24989866343085      0.31880678954512
  C   1.85670581762114     -0.66546386891329      0.26753399643034
  C   0.59086776010673     -1.14729999519182      0.48165649171574
  C   -0.47435889861823     -0.27422121852868      0.21663536793985
  H   0.41478228375325     -2.18475024844939      0.73016080846388
  H   4.93315506226337     -0.43877590133604     -0.26200982713511
  H   -2.84507764170238      2.95990164518436      0.71606087547771
  H   -3.69921039824594     -0.66168381936260     -0.89153024782897
