27
Coordinates from ORCA-job ./opt_b97-3c_parallel
  N   5.18347491879322      0.34086161438942      0.00901079781648
  C   3.83102847996912      0.22786476499380     -0.01943212785093
  C   2.91974016844677      1.30258176695986      0.01082573809306
  C   1.63833032704804      0.75118360020014      0.01495799066203
  C   1.78030231551855     -0.72660365640561     -0.01245897160871
  C   3.13086315360530     -1.01634887214886     -0.03104427786587
  H   3.58741512125166     -1.99371885714400     -0.04445359181826
  C   0.63939466787054     -1.51918609979067     -0.01489560723174
  C   -0.64287261382300     -0.98472927108220      0.00572678070307
  N   -1.63052626158090     -1.89927629427719      0.00362971349906
  C   -2.93221106673475     -1.71581144817392      0.01710611642052
  C   -3.73032705367919     -0.57255440276306      0.03034039027281
  C   -3.32764881741249      0.75459926405783      0.04301734592385
  N   -4.30233003681662      1.74180738136172      0.11609872447188
  H   -4.04010025176275      2.64426515020972     -0.24234792556941
  H   -5.22101529952120      1.46841690993068     -0.18843876508130
  C   -1.99261658664424      1.19431331901801      0.05164265615229
  C   -0.78907823193640      0.51200310999911      0.03030088187480
  C   0.37625154926811      1.30132823010893      0.03472408240765
  H   0.26256800872358      2.37905614468871      0.05509286005802
  H   -1.88352962034296      2.27471238990523      0.08257064283181
  H   -4.79946104178366     -0.75899026312687      0.03478148588044
  H   -3.49264464863971     -2.64839615236511      0.00969393589259
  H   0.71222137826647     -2.59781191066379     -0.03170315969671
  H   3.17579350764444      2.35015644998190      0.03162265785113
  H   5.73412960439955     -0.45615639278411     -0.25474571983536
  H   5.59364670527256      1.23078303352031     -0.21009054065317
