32
Coordinates from ORCA-job ./opt_b97-3c_parallel
  N   -5.42747962082166     -0.95453026915602     -0.78103435967086
  C   -4.42318165501881     -0.47018549810284     -0.44015994710894
  C   -3.18466496116000      0.07348213962505     -0.04996266814663
  C   -3.23531912767973      1.28660504841040      0.70832289181469
  N   -2.33013167321391      2.18417698094360      0.93018817220785
  C   -1.06220551471442      2.13215761799404      0.43457720064702
  C   -0.27651131440984      1.07329809909824      0.06648821055361
  C   1.13433372181276      1.35720459008690     -0.20855628412501
  N   1.51681975618399      2.62613257909048     -0.57553679080700
  H   2.42635473832469      2.67370560623200     -1.01112794169915
  H   0.82337082853664      3.15710908696326     -1.07451406799055
  C   2.05367814502093      0.36171048631063      0.00060539410699
  C   1.62970751594366     -1.00272639577247      0.25786315404914
  C   2.78706999908784     -1.79059320165046      0.31675418209861
  N   2.84115885524417     -3.16156461079510      0.45859389029316
  H   2.09232622706595     -3.56357052847656      0.99787237389377
  H   3.73381919627709     -3.52362011479394      0.74972158029272
  C   3.91719514697016     -0.94825224709652      0.11320295046949
  C   3.48387189659182      0.35564937256446     -0.06700473442573
  N   4.25972335964303      1.49482171804519     -0.28908862744688
  H   4.06699644066051      2.23749069656028      0.36939113005432
  H   5.24950877923399      1.29993088992235     -0.28518736626359
  H   4.94755014856971     -1.27317577753451      0.13284594067992
  C   0.27911508249012     -1.32257656126453      0.20076616918143
  C   -0.68580917601562     -0.33906093518652      0.06171752163760
  C   -2.03589924017958     -0.71110935918413     -0.27047567009146
  N   -2.22043925065241     -1.94738036044120     -0.78663704972765
  H   -3.14224531371524     -2.22776962979695     -1.07769942085111
  H   -1.44740753244974     -2.41454310214575     -1.22186255369322
  H   -0.02201372168985     -2.36082166154011      0.26306648944186
  H   -0.58692723449356      3.10509010580886      0.46642748442994
  H   -4.21136293934683      1.50943104987982      1.13445095139558
