29
Coordinates from ORCA-job ./opt_b97-3c_parallel
  N   -5.48799478888266     -1.67841776395931      0.52350391115395
  C   -4.51824504068048     -1.06057523933470      0.34218757254597
  C   -3.35743614879660     -0.28469939320820      0.13722220363136
  C   -3.55919592542851      1.09235213320989     -0.25453137439556
  N   -2.71935785445946      2.05920359880422     -0.28647132233949
  C   -1.38986002952859      2.01721378225736      0.04290022325329
  C   -0.47493643250367      1.00366070741723     -0.04190009001177
  C   0.93847361779725      1.36554093644725     -0.03235685863150
  N   1.32186217675060      2.68259108688695     -0.10690353665160
  H   2.26690741672956      2.82261712007216     -0.43082548233763
  H   0.67558123855495      3.30182703531161     -0.56467194125220
  C   1.87725294449262      0.36716645159516      0.05871467657634
  C   1.51650348156036     -1.03406862776207     -0.03268114992665
  C   2.74436436391566     -1.71744176500997     -0.08619941966687
  N   2.97274210088942     -3.04799782279590     -0.26250213114655
  H   2.24611829592787     -3.68295990187661      0.01704774182031
  H   3.90285354136192     -3.35304743453769     -0.03022795250001
  N   3.80579637046815     -0.85901331081321      0.00042987544119
  C   3.30339778375042      0.37259620488595      0.09569863248253
  N   4.11409902032676      1.48413454503080      0.19575852701773
  H   3.84901516750628      2.13024623031816      0.92449757213671
  H   5.08809972557850      1.23057782693012      0.27570786617979
  C   0.18806288784332     -1.39882502193987     -0.08881051341963
  C   -0.82510570680055     -0.43912854297436     -0.07275308043044
  C   -2.13322720960324     -0.92664171687206      0.08055959898644
  H   -2.19337048857459     -2.00604298977843      0.16351857206686
  H   -0.09949207489961     -2.44291225667026     -0.11892874200644
  H   -1.03279457478136      2.99713932493945      0.33482894033993
  H   -4.55735774181498      1.32848708912700     -0.61824957461600
