29
Coordinates from ORCA-job ./opt_b97-3c_parallel
  N   -4.91562138439377     -1.85321381223349      1.04308631346474
  C   -4.08792884398554     -1.13373335312884      0.65869754506239
  C   -3.06032596514932     -0.27859059019254      0.18571479138196
  C   -3.37933259783372      1.03656435206024     -0.03481831111857
  N   -2.64283734898940      1.99880862952770     -0.62937729517239
  C   -1.34221395800131      2.05423339274280     -0.63816390139702
  C   -0.34835447842458      1.18356496336763     -0.10057687684443
  C   0.92199939724148      1.70604999677591      0.13899337149949
  N   1.13315644710400      3.06427084295123      0.16366322459281
  H   2.05103922562010      3.36326713394180      0.43904167256010
  H   0.40461223767674      3.63498890733898      0.55335226064760
  C   2.01662488978163      0.82108974722391      0.27204659826876
  C   1.82970230956709     -0.59361282620159      0.05049839698824
  C   3.14591804321307     -1.15149120896501      0.13791213058720
  N   3.46296661067438     -2.49637444066290     -0.00400522323621
  H   4.45880487958469     -2.63712765887723      0.09794004446166
  H   2.96808143551956     -3.09698060789118      0.64173873921071
  N   4.05796417244746     -0.21135149612979      0.34242359563635
  C   3.38202230339774      0.98703361757852      0.41394529494786
  H   3.94196168358925      1.89786006946790      0.56374705281433
  C   0.61257032318572     -1.13586290272224     -0.28578196865410
  N   0.48817023629137     -2.45008839008030     -0.63468115452629
  H   1.35132250424119     -2.90414638820829     -0.89715780008859
  H   -0.28262763079344     -2.68766589065778     -1.23455600373276
  C   -0.56234569728685     -0.27957449391490     -0.15562049373323
  C   -1.77389268364475     -0.88620096891664     -0.03739110226067
  H   -1.78808094713615     -1.96660044613341     -0.00124003819751
  H   -0.94699530353256      2.91812145563993     -1.17239498183357
  H   -4.38127047556429      1.35500619049986      0.23255520417050
