29
Coordinates from ORCA-job ./opt_b97-3c_parallel
  N   5.35649659730633      1.00314361713840      1.08773347664024
  C   4.35668549619929      0.54309283697627      0.70956700408050
  C   3.15607562642606     -0.03746299223658      0.24864961137822
  C   3.25459210443997     -1.28913310134982     -0.45191074587925
  N   2.32103729375842     -2.14304714169246     -0.67804141625729
  C   1.03173204856930     -2.06276718665304     -0.24541185833148
  C   0.19399047901197     -0.99067889987573     -0.13788556154757
  C   -1.22673497288266     -1.23413441831437      0.02272976775832
  N   -1.75260590281221     -2.49580553937276      0.04801926995393
  H   -1.22678162281573     -3.22779250209999     -0.39392703810799
  H   -2.74094148030014     -2.54266072478648     -0.15780478383792
  C   -2.06363913766479     -0.14044049941999      0.12989180235223
  C   -1.60591887528882      1.20623375648294     -0.12072782279364
  C   -2.76180827814248      1.96827894234731     -0.23759056580760
  N   -3.88753180131674      1.21807420663600     -0.03708484132936
  C   -3.48234671972714     -0.03230040746573      0.18965963941495
  N   -4.37342348265186     -1.08113653774252      0.38310581818509
  H   -4.21337838178071     -1.59272978148547      1.24044346841062
  H   -5.32606384573090     -0.74426937093308      0.35979668094602
  H   -2.85813097507981      3.02313796551383     -0.44697458290127
  C   -0.23264414095607      1.48202564404851     -0.21643203942796
  N   0.20161039355899      2.77763546820995     -0.31419258368484
  H   1.01256000494251      2.96288658474628     -0.87633681257808
  H   -0.50700950882303      3.48478122351576     -0.38709366719349
  C   0.68624967825850      0.41474637503284     -0.12090066815803
  C   2.00105622932995      0.73309496233586      0.23288932096784
  H   2.14951786092796      1.76012298524457      0.54881938060738
  H   0.63497878500950     -3.04920352038819     -0.03508028618914
  H   4.22833462933493     -1.52865854511185     -0.87387689407085
