27
Coordinates from ORCA-job ./opt_b97-3c_parallel
  N   -6.16141482045239     -0.12167053476840     -0.47129790798513
  C   -5.01147246126036     -0.25356062541618     -0.36350173923948
  C   -3.61402092031958     -0.35373421790503     -0.18960661064952
  C   -2.98432331867855     -1.53840701490340     -0.53880093355645
  N   -1.76015937555404     -1.96556002021267     -0.28116386537487
  C   -0.67958056446480     -1.28145659978095      0.04131219048132
  N   0.39751818063822     -2.01213156413499      0.36185369097363
  C   1.57055713041450     -1.41930879229019      0.28820477449949
  N   2.74227943345781     -2.01882812887851      0.55025036526179
  C   3.67697794102674     -1.09822218993941      0.25225463920698
  N   4.96798132220987     -1.34878986781216      0.38375557765347
  H   5.65899522797197     -0.65594884693147      0.15132354367965
  H   5.26559571992383     -2.24956337705583      0.71736615114622
  C   3.13410186803560      0.17159258168877     -0.21590916881321
  C   3.92467680392092      1.26794529906198     -0.55949463767572
  N   4.67966821043402      2.11319755070564     -0.82532411521332
  C   1.76685063185505     -0.01121340143556     -0.17898244040296
  C   0.64242806940111      0.80051241408685     -0.32091875376363
  C   0.73785658759930      2.19086358730023     -0.54875598064337
  N   0.81978978592081      3.33254885504592     -0.73929014936677
  C   -0.61579183642004      0.21848721734759     -0.05628592103559
  N   -1.62773984034120      1.02610865165499      0.19416816583523
  C   -2.91839704659338      0.78992331619241      0.33601192631580
  N   -3.62511729041720      1.76491696439690      0.92944407287990
  H   -3.16062851524504      2.63541234217634      1.12087272976199
  H   -4.62750556693858      1.72913830547721      0.98489790227843
  H   -3.60910350882758     -2.27507484766997     -1.03374647565685
