37
Coordinates from ORCA-job ./opt_b97-3c_parallel
  N   -4.08019249534031     -2.46332087968436      1.74614282263714
  C   -3.30414654744893     -1.78003909124940      1.20561641998404
  C   -2.37262950759558     -0.96946532918990      0.53509022207419
  C   -2.88523176914671      0.21465224701897     -0.06262970897023
  N   -4.22498510833790      0.31294118856652     -0.17912583960615
  H   -4.65529757095794      1.17045671786961     -0.47553593259158
  H   -4.82331804629750     -0.44040532333031      0.10693632532859
  C   -2.09946228873351      1.28482982070785     -0.52551459681837
  C   -2.78185340262832      2.30397138230655     -1.21092014009376
  N   -3.36839373269711      3.14779897743507     -1.76363964416362
  C   -0.75542157586501      1.56716281000879     -0.09723272830618
  N   -0.47146934457864      2.90348172810943     -0.01812224513092
  H   0.48757334592783      3.19981619474787     -0.09443144009647
  H   -1.14983571472432      3.54082392242064     -0.39829695071858
  C   0.22488980996786      0.60277144661873      0.17957431140608
  C   0.04842939318274     -0.82828322868185     -0.20131273651926
  C   -1.10386221542374     -1.54081655564475      0.24435249016660
  N   -1.01744282049690     -2.87751618342774      0.45082872633421
  H   -1.80102484635168     -3.37321791996357      0.83744745917512
  H   -0.11920161912882     -3.32637756034388      0.48447997651609
  C   1.16543444278882     -1.52876557371851     -0.71024035377952
  N   1.07673631322745     -2.81141418327386     -1.22822434512755
  H   0.22092437960163     -3.02919917547662     -1.71204599227747
  H   1.88734920854223     -3.09357770892383     -1.75174235503153
  C   2.44406080374723     -0.96681422081054     -0.58277918232646
  C   2.62345083779383      0.26040899830867      0.14248500139907
  C   4.02283025167656      0.43790894356779      0.22414831045220
  N   4.69478548962040      1.50919358327395      0.82029870727373
  H   5.69192060828264      1.34495631812031      0.78112383456881
  H   4.49658744680279      2.39323188064613      0.36929593771241
  N   4.67843488224036     -0.58524605756043     -0.34721424732693
  C   3.73622570278666     -1.43854965798795     -0.82918699667855
  H   4.04464131277828     -2.35555193921395     -1.30957644873271
  C   1.54102032198733      1.01769361620412      0.56372392534188
  N   1.78814267084299      2.19014447103170      1.25080137650556
  H   2.69978715704955      2.20738431455032      1.68862045168641
  H   1.05287319210356      2.48918376476231      1.87139566593284
