23
Coordinates from ORCA-job ./opt_b97-3c_parallel
  N   4.77501714974419      1.69442144846479     -0.83741039258273
  C   3.99592189631430      0.88748832032700     -0.52717682839407
  C   3.04715335426671     -0.06797546965904     -0.15429534087433
  C   1.66066290836526      0.08333708077116     -0.09358040778066
  C   1.15594288124629     -1.23805149374923      0.37398674869708
  N   2.18503735432228     -2.10261650480665      0.58568018958619
  C   3.28186298152287     -1.41388154461689      0.27284271142078
  H   4.25863809076681     -1.87097787704386      0.34879840351311
  N   -0.11082792988367     -1.53354739414802      0.53054340505277
  C   -1.01356787641611     -0.56611865251617      0.24534237068667
  N   -2.24687034836120     -1.00406396254891      0.14855873529953
  C   -3.37709635540938     -0.32147454188025     -0.05686469582834
  N   -4.36652553576225     -1.02301442531894     -0.63951562143244
  H   -5.29312741612139     -0.63656326010611     -0.63940272888470
  H   -4.24832406471676     -2.01361253303493     -0.75474699628899
  N   -3.71028230985287      0.91487866604100      0.35124366632832
  C   -2.83310344424387      1.89006567182949      0.46196887109205
  C   -1.47176375725891      1.91615658904256      0.15645378931137
  C   -0.59167825359046      0.85259904382830     -0.01224003688620
  C   0.76450837198351      1.11202832145442     -0.23965089582449
  H   1.08995120683637      2.12220451824245     -0.45397442180866
  H   -1.02703161563021      2.90467536024579      0.13467061624585
  H   -3.25901882402148      2.82683242558201      0.80754979945187
