23
Coordinates from ORCA-job ./opt_b97-3c_parallel
  N   3.91543378001045      1.56186199220035     -0.00052940958285
  C   2.92381960598286      0.62966768170952     -0.00008054099002
  N   3.34708199929767     -0.62106608340557      0.00004326503088
  C   2.56549042453017     -1.70443221107155      0.00005263477411
  C   1.20073786298593     -1.87454177964268      0.00054318242621
  C   0.13930513233762     -0.94456778939922      0.00079248127798
  N   -1.07673880497970     -1.47851726824283      0.00148893416488
  C   -2.13022999392420     -0.64660735632212      0.00141049759330
  C   -2.00923342169614      0.82763274687661      0.00044525175084
  N   -3.24278440676793      1.42698192381505      0.00049420502831
  C   -4.09450229366912      0.39991712059696      0.00143255181045
  C   -3.48576332110129     -0.89204768049171      0.00203382873315
  H   -3.98296714700031     -1.84738168061678      0.00278870065441
  H   -5.16071754535271      0.58753182928117      0.00167609870955
  C   -0.77449683838551      1.38233355069966     -0.00028473193129
  C   0.36872895182697      0.52520103949091     -0.00000747630721
  C   1.59329337592899      1.14293274392730     -0.00047727142082
  H   1.54213467157555      2.22740726282366     -0.00127333833331
  H   -0.64234991473709      2.45690989023600     -0.00095622943211
  H   0.85785031860415     -2.90093086006208      0.00081073398821
  H   3.13897937268740     -2.62574462951034     -0.00014009824469
  H   4.86528351433082      1.23974465605882      0.00237844554528
  H   3.73416254871543      2.54594577194894      0.00360103385474
