22
Coordinates from ORCA-job ./opt_b97-3c_parallel
  N   5.84333384220318      0.74978196440153     -0.38314951158256
  C   4.71716888487761      0.50770396078151     -0.23893829067393
  C   3.33997717932338      0.23222956480776     -0.05594684189746
  C   2.84141474983683     -0.96860847676587     -0.52843520562941
  N   1.67301246152814     -1.54166896009348     -0.23845742658642
  C   0.56149098813822     -0.98247032425503      0.15310992891661
  N   -0.46542110397923     -1.85128230277124      0.41669868845010
  C   -1.65350813824768     -1.33568500499719      0.30165002271559
  C   -2.93435832881113     -1.97211181817309      0.39401509403093
  C   -3.86197905577502     -1.04357443144685      0.03358305575865
  C   -3.23336824210192      0.25060732601417     -0.26317410259883
  C   -3.92696393648714      1.41148144689296     -0.61409017149089
  N   -4.53069407729545      2.36156738564271     -0.90648981195127
  C   -1.87746988325147      0.09519441710479     -0.07779284462029
  N   -0.88738240670036      0.99268029215533     -0.02091847996883
  C   0.31654767077513      0.49986290801725      0.19187314003316
  N   1.26840193189482      1.36034033221589      0.60747078183712
  C   2.55478753296040      1.22249215563467      0.61650661643200
  H   3.10351424066712      2.00808048470152      1.12607165112368
  H   -4.92704654631939     -1.20150201467220     -0.03307407598067
  H   -3.10252547229933     -3.00414771756720      0.64896702818967
  H   3.50590396286328     -1.59051813662798     -1.11694449200695
