27
Coordinates from ORCA-job ./opt_b97-3c_parallel
  N   -5.34317655725991     -1.17161871744155     -0.15261586414318
  C   -4.19420270005905     -1.05586287306115     -0.01401911441199
  C   -2.80342439260946     -0.86334792600859      0.12605186729545
  C   -2.06938685718378     -1.94450311219614      0.69651221920917
  N   -0.80861148633466     -2.19837101702482      0.68223209243078
  C   0.21583357592692     -1.41911435836135      0.24127428050547
  N   1.29825009290860     -2.05521006268987     -0.13018148258428
  C   2.43965151057832     -1.35853221806957     -0.30397544008992
  C   2.58299028890545      0.04101419723441      0.15161077087514
  C   3.97474893346996      0.39156628675747      0.07575591307760
  C   4.61802571421782     -0.69503350907582     -0.44033157412630
  C   3.68493275986801     -1.79233007974277     -0.66273257316403
  H   3.94241766993531     -2.78192725841292     -1.00194349772854
  H   5.67529259224968     -0.75132672806928     -0.65100213877141
  H   4.39751035615027      1.34741116549046      0.33431834168261
  C   1.46473158683296      0.71904299407103      0.53356365397772
  C   1.58082948135515      1.99624128860801      1.13123034305360
  N   1.74958585949052      2.99911791072905      1.69041308457823
  C   0.17795566540135      0.06053209860379      0.31500236446797
  C   -0.92918923544313      0.81988481478038     -0.00964186393372
  C   -0.75466837583180      2.20780532417624     -0.26197410048910
  N   -0.74557803804039      3.32549968345008     -0.57734614387676
  C   -2.29659691177312      0.37749902348760     -0.27164627476291
  N   -3.12062508450463      1.26246821474707     -0.85564722693120
  H   -4.09299399368462      1.03875166932419     -0.98197637317265
  H   -2.83176551190078      2.20657440670026     -1.04365853239464
  H   -2.68523585896278     -2.70836364280591      1.16338758222684
