26
Coordinates from ORCA-job ./opt_b97-3c_parallel
  N   -3.52379794428041     -3.04827365418352      0.09377435129839
  C   -3.12580721326045     -1.95751043054754      0.08426859137329
  C   -2.71965356196849     -0.59958329463711      0.07430694704539
  C   -3.74901236455276      0.31665007320841      0.53108143319728
  N   -3.86787665347490      1.57844781009365      0.32038699422485
  C   -2.96523595543398      2.31403801533907     -0.39822259761732
  N   -1.68856657431257      2.18111962304736     -0.49622930930883
  C   -0.91079865911120      1.11495867222876     -0.17229138071537
  C   0.45491371646269      1.36068578868645     -0.03366083339642
  C   0.90960292548924      2.70139689620643     -0.04101339290518
  N   1.30280516423057      3.79207272547453     -0.04187182970617
  C   1.36765882202872      0.28757994361192      0.04786865951618
  C   0.87668020728596     -1.07078197221995     -0.13905134730947
  C   2.02454177820818     -1.96099003039295     -0.10973321004171
  C   1.95679855024221     -3.35342243310659     -0.24859096736997
  N   1.85624250227645     -4.50475389243129     -0.36846004238866
  C   3.13493211036220     -1.18310153914243      0.08876686929098
  C   2.74747537267046      0.20985903279158      0.18891942023177
  C   3.66714285652595      1.24466860256988      0.40191797019960
  N   4.47668014561621      2.05740618086108      0.58867194122861
  H   4.15063121003332     -1.53391424751284      0.16466831301783
  C   -0.44291970271855     -1.34039301549388     -0.27346795431549
  C   -1.39195594305507     -0.27697260716252     -0.16673089522527
  H   -0.79031517310850     -2.35897338673252     -0.37884377890782
  H   -3.39079453659365      3.20318514802551     -0.84925530095575
  H   -4.53355767887385     -0.14526736208708      1.12470210043498
