28
Coordinates from ORCA-job ./opt_b97-3c_parallel
  N   -3.04623986057500     -3.78997451231906     -0.00169922634023
  C   -2.58055145848984     -2.72277500737387     -0.00170540123807
  C   -2.07964500025157     -1.42075193129953     -0.00174400598891
  C   -2.88676760839301     -0.25113215808993     -0.00230892504776
  N   -4.21522789691657     -0.21801172531775     -0.00284279354210
  H   -4.70693185514069      0.65915654751480     -0.00327886116243
  H   -4.75279251879755     -1.06701288901523     -0.00293765864472
  C   -2.04031550255632      0.90893845079570     -0.00221227285612
  C   -2.57122748697679      2.20106166820107     -0.00266108956636
  N   -3.13712823621317      3.21808866272554     -0.00328198885746
  C   -0.71504299723990      0.45938373679685     -0.00155980645242
  C   -0.73564176693071     -1.00255168593037     -0.00127206897523
  C   0.43961033005741     -1.71412940077189     -0.00068971194141
  C   1.68871003446123     -1.07909978562605     -0.00031401214744
  N   2.71706251358748     -1.94101593465132      0.00010783822001
  C   4.01481677579542     -1.72523416177824      0.00062883103147
  C   4.74952350666199     -0.53770143344597      0.00105827638859
  C   4.24961759466969      0.74731721389194      0.00085138995623
  C   2.92054805318719      1.14850794941282      0.00013262562428
  C   1.73965334631289      0.40646761988614     -0.00046964305784
  C   0.51242108179980      1.12413969818657     -0.00117979409476
  C   0.52833710337315      2.54017986037863     -0.00155525629109
  N   0.56430046981613      3.70046646940693     -0.00213570515923
  H   2.78094437251591      2.22177181782730      0.00003251352859
  H   4.97579420887019      1.55011689085976      0.00125969404510
  H   5.82687716052695     -0.65135128237945      0.00158993181012
  H   4.60122143381153     -2.63971441735231      0.00080662671499
  H   0.43862757093415     -2.79399537673307     -0.00054397215581
