27
Coordinates from ORCA-job ./opt_b97-3c_parallel
  N   5.44934304126966      1.44505516575360      0.21981527690988
  C   4.42898252816733      0.89242319978775      0.14598137666153
  C   3.19761755593095      0.20013584929858      0.06566578864503
  C   3.27400490024343     -1.21160598106002     -0.12922424217547
  N   2.34869695462383     -2.11363381593773     -0.05640987122577
  C   1.01999952039285     -1.92184726662347      0.13961802464025
  C   0.20391558783341     -0.83049180886868     -0.01935783249875
  C   -1.22675175491730     -1.07111352148985     -0.04908082059570
  N   -1.72593472750704     -2.33741756573258     -0.17373877648782
  H   -1.15780723024998     -3.00995696486894     -0.65743153118025
  H   -2.70082333146399     -2.38342073983571     -0.43367904922038
  C   -2.08380652669447      0.00504040169079      0.06087973681555
  C   -1.59923297046863      1.37277703406177     -0.00110832036388
  C   -2.74929396383441      2.16086810461858     -0.07507409231021
  N   -3.87858400300118      1.40448524363987     -0.03108363271987
  C   -3.49513245980198      0.12234578860145      0.06202858095022
  N   -4.40897535389592     -0.92343219497840      0.11125952335144
  H   -4.29887931576076     -1.51854434844955      0.92099785668703
  H   -5.35467467217800     -0.56818340337730      0.07888164300414
  H   -2.81148389982020      3.23462753020476     -0.15829856211761
  C   -0.24066077907735      1.62434930604542     -0.04684738524654
  C   0.68353084294189      0.58031388426029     -0.04519141392151
  C   2.02765075928995      0.95119457695631      0.03548132148113
  H   2.18757062212101      2.02254933350100      0.06339372372234
  H   0.12472719908839      2.64284862017488     -0.07514194571632
  H   0.53506188715335     -2.84748104174808      0.42910272624020
  H   4.26003926131508     -1.59178172272486     -0.38554943992895
