21
Coordinates from ORCA-job ./opt_b97-3c_parallel
  N   -2.11638929202605     -3.34074745429909      0.34463423643986
  C   -1.98011225725222     -2.19279987928897      0.23911944697564
  C   -1.81865687345993     -0.78800436667409      0.10038688673888
  C   -2.98040826724773     -0.04650004830295      0.28799750221897
  N   -3.21784605888894      1.22218275670617     -0.04699001442793
  C   -2.29265560160445      2.09963312238570     -0.35086720550448
  N   -0.99653773448285      2.13038192918372     -0.02874240897428
  C   -0.17171871273037      1.13061913875789      0.13749319288795
  N   1.08513806254290      1.51092983410380      0.51228971294829
  C   2.03847119366548      0.64643000176572      0.32900211430944
  N   3.36637795824841      0.88662536765918      0.58578833289844
  C   3.97547161009137     -0.22328227353130      0.19732927712450
  C   3.10706577374298     -1.24962575829061     -0.32317794769624
  C   1.84798713948138     -0.72337846216636     -0.24156532642076
  C   0.53993420683548     -1.17662957626870     -0.41030889523050
  C   -0.49590779008703     -0.30650442131415     -0.15243527021021
  H   0.33613638539911     -2.21251923367023     -0.64586650743465
  H   3.40710977591181     -2.22268898158888     -0.67586878724159
  H   5.05086581269141     -0.30815626212880      0.28512670150923
  H   -2.65085386215840      3.00838969303246     -0.82275944779197
  H   -3.84597403757589     -0.58584912737102      0.65356004367859
