32
Coordinates from ORCA-job ./opt_b97-3c_parallel
  N   6.01773474482188      0.57396879596575     -0.28632300585065
  C   4.86224756372055      0.48315147985378     -0.16868805795662
  C   3.46632816712128      0.39073995966754     -0.02893945028653
  C   2.90836558696512     -0.92072180970046      0.16267337370367
  N   1.65490065601900     -1.30442974498634      0.13018313287387
  C   0.50255945590891     -0.64217071577962      0.04194590255244
  C   0.31881518633242      0.82952726473094      0.11093616058338
  C   1.34857070400557      1.73988142367570      0.08080296806729
  C   2.75158324407590      1.59656546246545     -0.03598116562426
  N   3.44501627035365      2.76197658703173     -0.12545450995938
  H   2.95865192545390      3.61326254705923     -0.33391011838290
  H   4.43179287257317      2.75328571392822     -0.31593678290866
  H   1.02568277668564      2.77414015031387      0.12451982536115
  C   -0.99610116713826      1.36527252825908      0.16120462969692
  C   -2.09457305804368      0.56618661068386      0.06400254442467
  C   -1.93782346546782     -0.89032637360872     -0.08216996059268
  C   -3.18357040665786     -1.45761889252534     -0.17418815538270
  C   -4.14733821613508     -0.39759967939747     -0.08997525832817
  N   -5.47129213198721     -0.55770059071563     -0.14298820163925
  H   -5.88411543136293     -1.46620059504769     -0.23937668176408
  H   -6.08648290120072      0.23405819933171     -0.07174225753278
  C   -3.48506255845340      0.84689245871010      0.05589361851747
  C   -4.11769149074579      2.08179044736645      0.15897169249121
  N   -4.68383188761767      3.09823078337615      0.24171061506276
  H   -3.41037122500016     -2.50547801910327     -0.28489211016713
  C   -0.64099977737822     -1.44522430278960     -0.08000038710200
  C   -0.50110312464342     -2.84885082430736     -0.16203374820037
  N   -0.47388508351768     -4.00756286645328     -0.23798458890082
  H   -1.11288935752678      2.43806326166853      0.24488655679116
  N   3.78464069020391     -1.93348828970877      0.38648791745481
  H   3.40995146747753     -2.86405832463783      0.33355966689951
  H   4.77523580335833     -1.81116456242669      0.28119915719863
