25
Coordinates from ORCA-job ./opt_b97-3c_parallel
  N   -1.74850440661548     -3.94102138665351      0.49443425305469
  C   -1.88980213387131     -2.80383541630881      0.31222748179188
  C   -2.18157407285928     -1.42941298945742      0.10567330405109
  C   -3.52509890664219     -1.07082365889002      0.32151771752156
  N   -4.17406200463237      0.02278851326848     -0.02196479047097
  C   -3.59789973048627      1.11313594240686     -0.51628680621196
  N   -2.36779039207884      1.56073490498837     -0.38046315198767
  C   -1.25377153140385      0.90612564120991     -0.09725393854969
  C   -0.10491106297228      1.69375154156742      0.17822479381184
  C   -0.22094943939232      3.09442356761324      0.32935272963032
  N   -0.29014638255868      4.24310711541628      0.46938877682188
  C   1.13333065183643      1.06512815479688      0.17499320642248
  C   1.17979858620899     -0.38234825372313     -0.13957468554664
  N   0.10512889214314     -1.15718473132832     -0.26046701828198
  C   -1.08080419296278     -0.57291132236418     -0.15839503904859
  C   2.52917069903811     -0.69101109786567     -0.21055703467400
  C   3.18319919097479     -1.89398512798084     -0.47349846427141
  N   3.81697882952558     -2.84663809385132     -0.68344419806718
  C   3.19961011834358      0.56250610176289      0.08531587208480
  N   4.50982044701240      0.72481099110856      0.13608025475971
  H   5.13834456553925     -0.04084848822703     -0.03719671472029
  H   4.88703546544550      1.63268415459630      0.34941549583739
  N   2.35143540711518      1.59355683757581      0.31286113808839
  H   -4.27527779454367      1.79992104726285     -1.01183668287458
  H   -4.14220160036377     -1.83755801662312      0.77685758612873
