25
Coordinates from ORCA-job ./opt_b97-3c_parallel
  N   -5.06475840581851     -0.40918203521806      0.01180853459539
  C   -3.73506011987888     -0.22402178715601     -0.02372309674995
  C   -3.09448980880078      1.00820496801872     -0.31555991828560
  C   -1.73182973675588      0.78108202414831     -0.21631942645629
  C   -1.53115153510674     -0.66541315268780      0.13086438935206
  C   -2.77489158081023     -1.24389187725330      0.25469238946542
  H   -2.98656127292273     -2.27381857541506      0.49019308759110
  N   -0.33253941859028     -1.24302593870757      0.23110814562088
  C   0.75541118367574     -0.49081501575883      0.08256750691032
  N   1.88094470457696     -1.18535737277126     -0.04284374813790
  C   3.13947145758357     -0.77625483515469     -0.10273122420862
  N   4.02016065564487     -1.75921953703176     -0.46699032242627
  H   3.66828388622647     -2.69877275062208     -0.40388004727137
  H   4.99939097362362     -1.63407069701632     -0.28669098438174
  C   3.65942096804486      0.49802268001384      0.19698549829310
  C   2.92891594931712      1.65580190746331      0.33462094046111
  N   1.63979192795586      1.90685608022697      0.14062148447005
  C   0.65331357773309      1.02922883049265     -0.02995656409520
  C   -0.61021874121443      1.57904076499051     -0.26429983640802
  H   -0.66859917460474      2.65241112184904     -0.38548355430563
  H   3.50249396414033      2.54380229991931      0.58776760303158
  H   4.73511760879185      0.59021357863929      0.29941419640390
  H   -3.59044161604616      1.94093965485108     -0.53240022325001
  H   -5.69161084241244      0.31434849034272     -0.28744352733956
  H   -5.45125983105262     -1.32553084086286      0.14026348402110
