22
Coordinates from ORCA-job ./opt_b97-3c_parallel
  N   -5.62353280053682     -0.01938583486805     -0.18687009158238
  C   -4.46957312878394      0.06921366846104     -0.09737832831416
  C   -3.06035760108068      0.16023929872727      0.01768122328180
  C   -2.36758272176325     -0.98368412884143      0.51143169444510
  N   -1.09999085734300     -1.24741276559000      0.42012952868348
  C   -0.07293176843510     -0.45057912643343      0.09764728677434
  C   -0.13320738601688      1.05466815757840      0.16497998367474
  N   -1.20610931919889      1.74611503036189     -0.12078912817931
  C   -2.44506188236383      1.33889103043665     -0.37642224705156
  H   -3.06401728003441      2.08418538257768     -0.86298471151715
  N   0.96981965060809      1.80159532530415      0.43058504347944
  C   2.11985693839861      1.20997065355084      0.27854318381624
  N   3.33480777255713      1.81913614912784      0.44053398348093
  C   4.21521251468053      0.88221306608440      0.11446533046187
  C   3.64787197208525     -0.38917255776112     -0.26109431314374
  C   2.29957763664042     -0.21281419177308     -0.15828182228112
  C   1.16246406888333     -1.03862729610893     -0.16916999374232
  C   1.28489814578257     -2.43834051634211     -0.32694414545469
  N   1.44906260963661     -3.57739417538034     -0.47255167380367
  H   4.18701131085802     -1.28231677271370     -0.52914590334403
  H   5.27405042013013      1.10283445440791      0.14437435852996
  H   -2.97669742280514     -1.77980065280691      0.92579094798632
