26
Coordinates from ORCA-job ./opt_b97-3c_parallel
  N   -2.06188504066195     -4.10224845172791     -0.00363113347016
  C   -2.09149130031623     -2.94233410379494     -0.00364014088933
  C   -2.20155888236613     -1.52258568395961     -0.00368196468948
  C   -3.56197470057245     -1.09763984236308     -0.01161815061577
  N   -4.09895285565335      0.09244341804276     -0.00509604513252
  C   -3.45617360569623      1.26139145234623      0.00675857219757
  C   -2.09767195094685      1.56168399224588      0.00538584654146
  C   -1.82133257328494      2.95833048502140      0.01226133979972
  N   -1.72669605364977      4.11462676628948      0.01902841354913
  C   -0.95257771217714      0.70473994946759     -0.00100776452534
  N   0.19748755408197      1.36395932098058     -0.00362039763671
  C   1.33516773901660      0.67817289703395     -0.00273651655559
  C   1.38112755860381     -0.78710621385446      0.00341844540005
  C   2.75719213573121     -1.17480407111307      0.00449672328277
  C   3.23016762259571     -2.49423450942998      0.01003413051042
  N   3.58624975007277     -3.60022699126762      0.01462610124424
  C   3.50870941333925     -0.00677026591179     -0.00115953836377
  C   2.65223599071614      1.14131405524544     -0.00568395494624
  C   3.08358298986490      2.47387346373110     -0.01189611274326
  N   3.46472158367162      3.57124891790945     -0.01709849902975
  H   4.58537051148167      0.03965231963484     -0.00204917786015
  C   0.21239314866273     -1.48035001716819      0.00549404483794
  C   -1.01882873241627     -0.77307418414535      0.00143915839532
  H   0.21180155012030     -2.56131185534394      0.00853544357168
  H   -4.11770887023364      2.11856635343694      0.01589472797291
  H   -4.28114240478368     -1.90952483490567     -0.02296015594515
