24
Coordinates from ORCA-job ./opt_b97-3c_parallel
  N   0.86059243700022      4.07767541569469      0.00050072985269
  C   1.17036212464896      2.95973403456173      0.00022652284924
  C   1.70613166791882      1.63994198136376     -0.00006156919841
  C   3.10140452214730      1.60739220574680     -0.00019322058400
  N   3.96544911789091      0.59511633079360     -0.00054770868694
  C   3.64813738184690     -0.68136194018251     -0.00074803469570
  C   2.40665214558757     -1.33158093385156     -0.00060437907367
  C   1.11171422421243     -0.84355716045322     -0.00035007439515
  C   0.74257085603008      0.58432440408607     -0.00017956957844
  N   -0.51476896520833      1.01355708417600     -0.00007655485648
  C   -1.48540255799472      0.10741252113226     -0.00009852078369
  C   -1.25228315293085     -1.34722373258158     -0.00019887496593
  N   -2.41309122157551     -2.04303484435250     -0.00020648312408
  C   -3.36478608750535     -1.10544399765061     -0.00013178272860
  C   -2.87226736927256      0.24196044242012     -0.00005500686297
  C   -3.64195506232533      1.41055506289707      0.00004461785793
  N   -4.30751471141988      2.36264695502439      0.00041817296155
  H   -4.40970974791389     -1.37976049869135     -0.00012881007847
  C   0.04347507850144     -1.80473699510474     -0.00030497491144
  C   0.31310373680794     -3.19517326735251     -0.00038476659543
  N   0.56276902564424     -4.32739813470688      0.00000599015247
  H   2.49179781693653     -2.41142623872941     -0.00074321999200
  H   4.50671514930658     -1.34486334062639     -0.00105203394027
  H   3.57650309896651      2.58105039578678     -0.00001641342218
