28
Coordinates from ORCA-job ./opt_b97-3c_parallel
  N   5.42824454456272      1.42850292848338      0.15843293633111
  C   4.41413234273324      0.86351065169535      0.09454402562308
  C   3.17976092165947      0.17275810326379      0.01614482244755
  C   3.24599327688756     -1.23014346111799      0.00240058922774
  N   2.30963180270341     -2.13499006413994     -0.17844801323216
  C   0.98606442740156     -1.91539061280531     -0.22871853200184
  C   0.18008637627541     -0.81212650546751     -0.01276678043043
  C   0.67564927536387      0.59515675015927     -0.01498893513519
  C   2.00848730227165      0.95443644546266     -0.01116219419133
  H   2.18755414786400      2.02276894746142     -0.00837951021302
  C   -0.25228497730121      1.64804245695439     -0.04278412492238
  C   -1.60458418429786      1.40836426530460     -0.06150653447026
  C   -2.10799447918672      0.03609981232888     -0.04357746969445
  C   -3.50912149427464      0.10869624641156     -0.03856394062213
  N   -4.37315873693734     -1.00199948616964     -0.03055786403405
  H   -4.31939896998594     -1.54151258708140     -0.88488197960113
  H   -5.33527412002227     -0.73226942570692      0.11146904512510
  C   -3.86885339388690      1.47524649565863     -0.02060025358766
  C   -2.72054710656098      2.26556279068173     -0.02810020893329
  H   -2.68896961693030      3.34315296125448     -0.01622700622667
  H   -4.88546865771475      1.84189636361431     -0.01238227124753
  C   -1.23422630914414     -1.04045675414032      0.07250576023410
  N   -1.74179452837550     -2.30320382997704      0.23761774653878
  H   -1.17543683959067     -2.95780153582913      0.74713327427544
  H   -2.71714633465857     -2.32699448793742      0.50312642816241
  H   0.11931488438094      2.66481329874862     -0.03456547436658
  H   0.45481393551310     -2.82562726183718     -0.48953867753967
  H   4.24032635345076     -1.64777061767340      0.13679297258453
