31
Coordinates from ORCA-job ./opt_b97-3c_parallel
  N   -0.18694022699517     -3.11264182861052     -0.55080159638840
  C   -0.27589962699158     -1.75524272415306     -0.32497766282100
  C   -1.49967267868105     -1.12452803905595     -0.22897992771832
  C   -1.56911235412154      0.28436481537570      0.10062986747015
  C   -2.91566095719249      0.61998904902000      0.20438088361029
  N   -3.40941902274168      1.91916256919374      0.52665646638543
  H   -4.31250452765510      2.07661639526178      0.10015774776732
  H   -3.53565156421128      2.02439498741320      1.52677197299875
  C   -3.68334747387111     -0.54737451430009     -0.07775550132748
  C   -2.83524714660946     -1.60304395596015     -0.35506143863741
  H   -3.14626298505636     -2.61316481124546     -0.57424054254030
  H   -4.76359571382939     -0.58948178774995     -0.06526448182883
  C   -0.39842125763819      1.08132848494438      0.08389129576565
  N   -0.55830458206000      2.47377427872263      0.05457523248171
  H   0.06769306211004      2.97479953317289      0.66586333033681
  H   -1.52636832854171      2.73663578000950      0.21304750323674
  C   0.83693900408686      0.46647999432219     -0.02606716382251
  C   2.02499129538879      1.22940405795800     -0.41790609196156
  N   3.27701314118329      1.08194955480584     -0.02913026556637
  C   3.77967484905481      0.03724728206276      0.63358580308634
  C   3.28783853319497     -1.23622843461951      0.77918824812701
  C   2.03741313443405     -1.70862954803507      0.36081321523917
  C   0.92147660325143     -0.99745855006429     -0.03314630767608
  H   1.90145382948519     -2.77851216248183      0.45518800524410
  H   3.94939340825966     -1.95462776814164      1.24684730002851
  H   4.76696505802899      0.22829517760455      1.04570161310773
  N   1.83255143699676      2.22484569152713     -1.31020349725544
  H   2.60852535764318      2.84686106136398     -1.45929593920102
  H   0.89589413430971      2.58047370346590     -1.44230502356958
  H   -1.05658516312136     -3.55779676922489     -0.78641659878154
  H   0.56624120148907     -3.41181883358278     -1.14589139398894
