25
Coordinates from ORCA-job ./opt_b97-3c_parallel
  N   3.67396322094446      3.16345973635253      0.07911828003120
  C   3.11422254033459      2.14870434586632      0.01419526356582
  C   2.59217282647241      0.83518490269207     -0.10799367883273
  C   3.51712529768701     -0.11393758381474     -0.64904116694814
  N   3.51114192135210     -1.40607163895048     -0.54478139699959
  C   2.56258433265737     -2.15211520238904      0.03343483765508
  C   1.21754315990174     -1.88307387739685      0.20798803917443
  C   0.48971896746312     -2.97430178941982      0.75454662872343
  N   -0.01455400082563     -3.87548075397642      1.28449900833683
  C   0.52950282185252     -0.63560255307931     -0.01207451445669
  C   1.23258905814541      0.64062566369348      0.15191996644356
  N   0.58227507827993      1.80259371270895      0.44832856927599
  C   -0.71327398168167      1.80163914298130      0.37783554499999
  N   -1.50680671422596      2.90853577187629      0.59357617328008
  C   -2.72455394987305      2.49784402890504      0.33543551749851
  C   -2.81593661317167      1.09401685951073     -0.07009824419076
  C   -4.00339713136275      0.43311526285770     -0.39765884942647
  N   -5.02096854235227     -0.06325983382692     -0.66117839504210
  C   -1.51816318572434      0.63423885522134     -0.02337584940221
  C   -0.85809003433570     -0.59591158501211     -0.18359863716320
  C   -1.60706060344437     -1.73713798819940     -0.55946862501214
  N   -2.25305806821724     -2.61805917843014     -0.94898096895353
  H   -3.57530066324326      3.15903050754512      0.42094824644181
  H   2.89713515171174     -3.14034095998200      0.32352164506330
  H   4.37077118175533      0.31081986246631     -1.16644716046277
