28
Coordinates from ORCA-job ./opt_b97-3c_parallel
  N   2.19504834835062      4.24014628661536     -0.09082532026695
  C   2.16919161584034      3.08040510275429     -0.14143671699342
  C   2.22732302222975      1.66568012348046     -0.21969690424731
  C   3.46826048877956      1.18088757443864     -0.77238588522107
  N   4.03366360288586      0.03212741528152     -0.61049266895029
  C   3.52809873223656     -0.99753689350256      0.09342184378773
  C   2.21247718638679     -1.32942685978137      0.31118405754179
  C   2.03084943160379     -2.53818654969760      1.03473502511927
  N   1.94863191074641     -3.48371012884560      1.70312156408653
  C   1.03544761386205     -0.54603464071982     -0.02296004595297
  C   1.08985504187156      0.91159630642242      0.06282200979630
  C   -0.12602642239461      1.63315553107879      0.29553868262671
  C   -1.31605224855996      0.99926852180332      0.19391190605790
  C   -1.39486525589957     -0.41284013695155     -0.12771954527710
  C   -2.74194658301110     -0.73290758082010     -0.25295799295202
  C   -3.32960560655180     -1.96587883836962     -0.56556126624861
  N   -3.87886324615341     -2.95684869855343     -0.82364157624792
  C   -3.51670408030804      0.46281683562516      0.00628032427090
  C   -2.67402332398705      1.50946047717704      0.27532634873089
  C   -3.01081331314158      2.83845883247487      0.56445416809141
  N   -3.24672668803277      3.95006877432649      0.80609085927692
  H   -4.59281546193447      0.50203421927045     -0.01663526854427
  C   -0.19967338920765     -1.16603644279717     -0.19839692731460
  C   -0.27785029976899     -2.54941062959730     -0.49401283032211
  N   -0.35936102170693     -3.65999256260475     -0.81791087546984
  H   -0.08584972594612      2.70146732474719      0.45595395640029
  H   4.27620661651943     -1.68906642650721      0.45981265688605
  H   4.02375642729090      1.90259774975192     -1.36313759426431
