30
Coordinates from ORCA-job ./opt_b97-3c_parallel
  N   4.78827269825817      0.82600147235753     -0.54690260043922
  C   3.47562439884948      0.56582294309814     -0.26866235100099
  N   2.67729935717073      1.60508399850826     -0.45187744594755
  C   1.37455423781094      1.62626981059593     -0.15342890349582
  C   0.42101236792871      0.65394494985153      0.08045925543690
  C   -0.95672801792541      1.09557082168699      0.22671475164633
  N   -1.28618819310969      2.38378507374887      0.54796778945085
  H   -0.57054194900079      3.08559955878055      0.55442200944368
  H   -2.18167437170338      2.69986932665724      0.20711952246207
  C   -1.97025020903373      0.17838145438381      0.02593371455769
  C   -1.68859563195236     -1.18586379716634     -0.35617562643373
  C   -2.92524467734943     -1.75172486027029     -0.63398040097112
  N   -3.94500955212940     -0.85774057821017     -0.42917810747162
  C   -3.38756181915094      0.28331981059632     -0.02092410968601
  N   -4.14243894924031      1.43176170930958      0.24092755642526
  H   -5.12244399737659      1.22966343395301      0.09408858419678
  H   -4.01649051591765      1.76838847751793      1.18744011738892
  H   -3.14161187237196     -2.76118519494473     -0.94877699202618
  C   -0.37368293758841     -1.65519634981917     -0.28931237078292
  C   0.66677929671743     -0.79628747822551     -0.00627102453481
  C   1.96586793639829     -1.34993329082543      0.30787225561674
  N   1.97792696237215     -2.67237788159184      0.66340523962463
  H   1.15500763588018     -3.03826154659605      1.10771947444785
  H   2.84294521553882     -3.05357442562510      1.00313066304923
  C   3.18872282064209     -0.71547987762074      0.25395877834490
  H   4.04965110674547     -1.29850854859370      0.56273109462391
  H   -0.17827910235762     -2.70373210074758     -0.47054343366628
  H   1.00416089947151      2.64530177387043     -0.19954308615029
  H   5.39968865976033      0.06476414273034     -0.77964022977682
  H   4.95719998776338      1.69822134529010     -1.01810504783245
