22
Coordinates from ORCA-job ./opt_b97-3c_parallel
  N   -2.04155470785701     -3.35306152048574      0.45714855622088
  C   -1.93534822749118     -2.20847876973396      0.29532783735573
  C   -1.81729401528276     -0.80696323988802      0.08808609351177
  C   -3.00968580550529     -0.10984256034318      0.18866072410118
  N   -3.27977513840762      1.15499948077828     -0.16220200886152
  C   -2.38582090847292      2.07894333759134     -0.38759432358949
  N   -1.08374313662702      2.14944235285891     -0.05119572901405
  C   -0.23248197111412      1.16558788007781      0.09090304511565
  C   1.10179426592031      1.57785459278985      0.40273405929822
  C   2.12827010887711      0.70691817790328      0.24032893511852
  N   3.48013551874672      0.95147483715102      0.37932047536248
  C   4.05135428626047     -0.19966224148333      0.06659037659026
  C   3.12699010404968     -1.24629011979254     -0.29171153782232
  C   1.88232015097988     -0.68148886259506     -0.18632158222942
  C   0.56310884747435     -1.14384263148049     -0.32244611242027
  C   -0.49700714149895     -0.29103953988908     -0.14433426122609
  H   0.37979169098090     -2.19492742242972     -0.49973043929730
  H   3.37937909909341     -2.25444528072765     -0.57728443541702
  H   5.12860243074064     -0.29878517702718      0.09242104955160
  H   1.26564936935362      2.61982801922090      0.63345723947462
  H   -2.76899990994128      3.00044102321116     -0.81314816944130
  H   -3.87625528067627     -0.67831763070777      0.50368741531732
