31
Coordinates from ORCA-job ./opt_b97-3c_parallel
  N   5.82035143872027      0.97421810194108     -0.06176207211887
  C   4.67008197146949      0.79865520460187     -0.02963004844633
  C   3.27544797821209      0.59550571497304      0.00364694758691
  C   2.48972363328610      1.77349257238502      0.03843844873738
  C   1.09588024871299      1.85485364486143      0.04156768910702
  C   0.08285191117707      0.90828056840523      0.02140173882752
  C   -1.23771240467765      1.40020957626693      0.01869337654869
  C   -2.29070780728508      0.52685712633309      0.00701668284496
  C   -1.99839865310660     -0.92315720154823     -0.00075474769948
  N   -3.11552496609434     -1.65912405737657     -0.01148092216307
  C   -4.12607516986264     -0.75405127879887     -0.01103206653822
  N   -5.39237277411949     -1.15409386663294     -0.02036596400876
  H   -5.59600136609507     -2.13778444651238     -0.02697321408033
  H   -6.14850114410892     -0.49319379541419     -0.01906671997143
  C   -3.68617653098988      0.61583714226345      0.00004283974770
  C   -4.51101695132420      1.73656245914803      0.00145581814446
  N   -5.23641617417476      2.64932309674106      0.00205766965575
  N   -0.77030562350385     -1.40974709167890      0.00213917073776
  C   0.26831332700497     -0.55890554607551      0.01084826588072
  C   1.50685638998681     -1.22945972758712      0.01489378139233
  C   1.39469408020687     -2.64784394615956      0.01477492547834
  N   1.51664279227125     -3.80367724309361      0.01473265859027
  C   2.85470440980263     -0.75745721789048      0.00685163226670
  N   3.82352707618418     -1.69636383058794     -0.00594248943823
  H   3.58964427649608     -2.67378537872345     -0.01480169672510
  H   4.79472096023784     -1.44358434022773     -0.00573273926154
  H   -1.40023562077378      2.46997562823904      0.02737107818792
  H   0.72732137259564      2.87456331452692      0.06932047116512
  N   3.15154583022107      2.96569652408406      0.10568248385067
  H   4.14064289339513      3.00577141453491     -0.06700849333122
  H   2.64351203633574      3.80939491810225     -0.08284698926763
