27
Coordinates from ORCA-job ./opt_b97-3c_parallel
  N   -4.87094927089791     -1.14319394893893     -0.48909316639576
  C   -3.89862482023699     -0.53347402964138     -0.29431340656662
  C   -2.68630437029750      0.15729189081777     -0.07714714248559
  C   -2.80923613679045      1.45867278609761      0.43700866320129
  N   -1.95163564488607      2.44909531501688      0.47438577360966
  C   -0.67885664048252      2.36700028601670      0.08978074829288
  C   0.19241202240818      1.29262393871148     -0.06209300883893
  C   1.54573155091702      1.67711508128238     -0.22061472100171
  C   2.54582416165472      0.74959384594017     -0.16617995834305
  C   2.23082601222714     -0.64171661610445      0.09992026813058
  C   3.45984916925677     -1.27834728648930      0.20100671109933
  N   4.49511345042123     -0.39871899982083      0.00481240543228
  C   3.96484738727606      0.80366415090769     -0.20534706653246
  H   4.58433361954117      1.67229789989537     -0.37105072460970
  H   3.67995243571472     -2.31929804307926      0.38697355858563
  C   0.89382201613603     -1.06378638485172      0.17549737797142
  N   0.65366250659494     -2.42974655389503      0.35827743372050
  H   -0.07038018119508     -2.63811926766252      1.02929475235787
  H   1.49049448188258     -2.94168408095501      0.58323635670590
  C   -0.15009135665497     -0.13547171534108      0.01180202496608
  C   -1.48458991294949     -0.57698680722281     -0.31494335275737
  N   -1.64000204973180     -1.78475268353397     -0.86947063103745
  H   -2.55897571347500     -2.13694630300377     -1.08026271824296
  H   -0.84586528600286     -2.39773953803802     -0.97995367679396
  H   1.77227361352615      2.73100783579754     -0.31666077536526
  H   -0.22538047695929      3.34210329598359     -0.06105892687641
  H   -3.80126074319667      1.71296356191058      0.79964461167379
