28
Coordinates from ORCA-job ./opt_b97-3c_parallel
  N   -3.75954701800046     -2.35177199394977      0.13049918938857
  C   -2.90810892175232     -1.25417995586788      0.03972571685387
  C   -3.50839128296430     -0.00008358343687     -0.00091427574073
  C   -2.90770697029548      1.25395832692729     -0.03832161086395
  N   -3.75849472631342      2.35155047763946     -0.13410829889449
  H   -3.35976486161090      3.22817838241570      0.15560940018392
  H   -4.68277105710922      2.21978298464028      0.24010757560241
  C   -1.53960371516336      1.53976238168007     -0.04972806864325
  C   -0.40239864489727      0.74104063080837     -0.01863540763491
  N   0.75460327679896      1.44358318112395     -0.03738684861000
  C   1.88178969118610      0.75039528433696     -0.01161682013546
  C   1.88152814003303     -0.75156074645842      0.03547014902829
  N   0.75410619323672     -1.44447257758089      0.05711210640163
  C   -0.40266425911896     -0.74170401645972      0.03234201006283
  C   -1.54012720593427     -1.54014315634297      0.05998011401651
  H   -1.28403676779809     -2.59299819828483      0.10456390828978
  C   3.19788481512124     -1.17438275875573      0.05278661076785
  C   3.99917248909823     -0.00066498889837      0.02176570540886
  N   5.34903290544127     -0.00167147479636     -0.00386221849771
  H   5.84536807787853      0.85507539679494      0.15938938447128
  H   5.84510773507200     -0.84692228565593      0.21172517599275
  C   3.19827627806506      1.17303355381223     -0.01982388619865
  H   3.55602331307688      2.18937691314211     -0.05552578917682
  H   3.55524697472136     -2.19108668416957      0.08132519050484
  H   -1.28308841622528      2.59260941971338     -0.09204297334379
  H   -4.59396575115133     -0.00001187036797     -0.00463705435458
  H   -3.35936276340315     -3.22807648390991     -0.15824613866381
  H   -4.68167680969150     -2.21953759979955     -0.24884571811525
