22
Coordinates from ORCA-job ./opt_b97-3c_parallel
  N   4.66621351713250      1.64333471945878      1.09421252937464
  C   3.88241362537007      0.87714021597021      0.70593795080112
  C   2.95781301365386     -0.05876989027854      0.23459914975207
  C   1.58029362025778      0.06498320472884      0.09371520776521
  C   1.13393988958229     -1.25450014691342     -0.45614843333397
  N   2.19593233440187     -2.08164215713929     -0.66976843096321
  C   3.24758887971943     -1.38007000329850     -0.25939938981231
  H   4.24201416143266     -1.80219096157940     -0.30908090555059
  N   -0.12046610634552     -1.55939387321676     -0.63266364384232
  C   -1.01299808913829     -0.58756155910794     -0.28419592341346
  N   -2.24905763184352     -1.00329426921900     -0.18519494734401
  C   -3.35456828788858     -0.29121272017444      0.06259848190471
  N   -4.34137295811689     -0.95955874825271      0.67869860719540
  H   -4.24629809698391     -1.94987789905704      0.81585220682581
  H   -5.25220249464750     -0.53988656184968      0.72777272018442
  N   -3.65727780001555      0.95099909754722     -0.34917675638689
  C   -2.75262635005591      1.90061839059981     -0.46702157021629
  C   -1.39356397380851      1.89597867613825     -0.15362094387514
  C   -0.54592924725099      0.80369097249939      0.01638101241921
  N   0.74482224625266      1.07497680341954      0.26529270618756
  H   -0.89660242926585      2.85737920750048     -0.12771456841648
  H   -3.15288263384392      2.84438635362682     -0.82321131525628
