24
Coordinates from ORCA-job ./opt_b97-3c_parallel
  N   -3.94657971313246     -1.58240570628086     -0.08395226155975
  C   -2.94269143920490     -0.63918852202896     -0.04015924534198
  N   -3.36895725034552      0.61225268488282     -0.03231906766956
  C   -2.60084060939360      1.69909351737907     -0.03998898054482
  C   -1.22925594891016      1.86749327042994     -0.01490378834529
  C   -0.17505245388150      0.94414260642583     -0.00149529397148
  C   1.12397515833611      1.43977021034430      0.03345198697521
  C   2.21783733295231      0.58888232358424      0.03036827124480
  N   3.51628674580971      0.89700786006322      0.06002803671811
  C   4.15966786307957     -0.31803271851081      0.03501018922187
  C   3.31521959152862     -1.41728980643371     -0.01033677810165
  C   2.01397301189719     -0.87793117691755     -0.01567591612435
  C   0.74363312101290     -1.38602427420476     -0.05060625756937
  C   -0.38645629148119     -0.53004249522355     -0.03874005649927
  C   -1.61793437236827     -1.14570321365220     -0.06496565038569
  H   -1.56731065903471     -2.22898443896685     -0.11120615038259
  H   0.57501613796708     -2.45549804364960     -0.08272943768580
  H   3.59648187597115     -2.45694031524568     -0.03641988515314
  H   5.24058115775725     -0.34113257192590      0.05137269157903
  H   1.28749362679809      2.50896881619716      0.05920050912592
  H   -0.91617762172418      2.90534904268853     -0.00244773546704
  H   -3.17603326777322      2.61929138061601     -0.05104216626764
  H   -3.75906760623570     -2.49914055039223      0.28095182122929
  H   -4.86111676662456     -1.22079855157847      0.12731972527521
