22
Coordinates from ORCA-job ./opt_b97-3c_parallel
  N   4.78048483623639      0.04507099618974      0.01674136535186
  C   3.44420169323950      0.00747364432722     -0.02113740433778
  C   2.67408953491086     -1.13654072354249     -0.37620114936389
  C   1.34741384315194     -0.77223119942148     -0.27386183465274
  C   1.30123483911965      0.67935562740130      0.13540933279651
  C   2.59720209374313      1.11102367420625      0.29762486573555
  H   2.91509579274537      2.10246668621904      0.57384250718322
  N   0.17258570644539      1.38672484678645      0.22515141475951
  C   -0.97016117600067      0.74551465573327      0.02688398280090
  N   -2.02766962608889      1.49627022855349     -0.27259028797126
  C   -3.28162444093426      1.10037720511727     -0.41039006233599
  N   -3.93844594195508      0.05510898609220      0.07871092847808
  C   -3.32309569010914     -1.03486447243717      0.52511303873761
  N   -2.10051028181302     -1.48776210942494      0.30967804301377
  C   -1.02610929391904     -0.77880975723014     -0.03191054447058
  C   0.15054052635634     -1.46346109445214     -0.31588449798154
  H   0.10708279519166     -2.53901439696522     -0.42270681916963
  H   -3.96533832247561     -1.72915148839171      1.05841468959940
  H   -3.91103959081028      1.81624028714735     -0.93103308388288
  H   3.07045773736442     -2.10744997210567     -0.62686765247204
  H   5.33135709253961     -0.75439414611794     -0.23565044406741
  H   5.27010963336169      0.88155470851524      0.27489413894931
