25
Coordinates from ORCA-job ./opt_b97-3c_parallel
  N   -3.90405060366006     -1.62257148655142      0.06411964336150
  C   -2.93260956258130     -0.64324842556165      0.03505704150593
  N   -3.37918478031789      0.58651411092071      0.02701373754969
  C   -2.61912814489878      1.70012589224609      0.05380544422793
  C   -1.26412038969648      1.88870013577101      0.03074488290240
  C   -0.18217969959445      0.97365158269981      0.00764471166594
  C   1.10499948947524      1.47235491112253     -0.03146135554467
  C   2.22698215432423      0.63959222095182     -0.02974176732472
  C   2.03267912276026     -0.82546187921656      0.02553082023933
  C   3.32835089689972     -1.42907858766062      0.02269289036943
  C   4.24669896930868     -0.40805530654855     -0.03003607166643
  C   3.58489491157810      0.86682812582882     -0.06250151051380
  H   4.07605451397179      1.82636202817615     -0.10422608266228
  H   5.31958973542112     -0.53615326786399     -0.04485094756324
  H   3.53357559435624     -2.48668451865130      0.05618396599250
  C   0.77711266626034     -1.33953296628016      0.06731265933145
  C   -0.37877738020726     -0.49306594267478      0.04987176426995
  C   -1.58625444910029     -1.13551107154682      0.07426188277660
  H   -1.51928915103094     -2.21722137917928      0.12906713036955
  H   0.62141049974128     -2.41090940251317      0.10618424157412
  H   1.24138062917277      2.54677153558859     -0.05838959693261
  H   -0.96391327039377      2.93096696549491      0.02948839397324
  H   -3.21534050899216      2.60597336716775      0.07433903025815
  H   -4.82781796075351     -1.28574968830894     -0.15019031009026
  H   -3.68385779024293     -2.52211505191094     -0.32556988906969
