27
Coordinates from ORCA-job ./opt_b97-3c_parallel
  N   -3.82205816256582     -2.23988534411636     -0.11172192554266
  C   -2.93617312267966     -1.18434220854079     -0.05130072394322
  N   -3.53458270421828     -0.00018491078935     -0.01843418754559
  C   -2.93615352382268      1.18409529475921     -0.04611046593674
  N   -3.82201827331244      2.23990074231905     -0.10199984170102
  H   -4.76849923365599      1.99995106467096      0.13737747640950
  H   -3.51284261231584      3.13280786100184      0.23807513828753
  C   -1.57259699710589      1.51917803583556     -0.05654475873552
  C   -0.42070968632245      0.74476791643548     -0.03629375892780
  C   0.80648180184023      1.42978572602534     -0.02212208394011
  C   1.99559689463082      0.73702970562167     -0.00905177975919
  N   3.26735163251993      1.16902518262651      0.00558092954990
  C   3.96618399646399     -0.00031144759003      0.01036333086995
  N   5.30477353931110     -0.00041063909758      0.04758274653959
  H   5.79177117888524     -0.86585958996962     -0.09174235182535
  H   5.79178778783824      0.86566656618975     -0.08772327972749
  N   3.26733291427325     -1.16960828783746      0.00016519551790
  C   1.99558635076537     -0.73752962833479     -0.01246402809152
  C   0.80646077943994     -1.43020406783101     -0.02874022304461
  C   -0.42071984727024     -0.74511424448861     -0.03968472227069
  C   -1.57262566857323     -1.51940437294184     -0.06333121682367
  H   -1.38309927067176     -2.58679642096043     -0.09295399223021
  H   0.80991771325106     -2.51196319191152     -0.03391352856075
  H   0.80994892958347      2.51155700937543     -0.02234471756168
  H   -1.38305243318840      2.58669072740685     -0.08137833824922
  H   -3.51286769571555     -3.13425353953115      0.22447541866858
  H   -4.76852151878438     -2.00096972162712      0.12875186097403
