28
Coordinates from ORCA-job ./opt_b97-3c_parallel
  N   -3.90124235950495     -2.28540445303280     -0.02303364783529
  C   -2.99744970083540     -1.22845445416607      0.00902048857673
  C   -3.51747958513638      0.05597415171445      0.05822517945660
  C   -2.81735701968380      1.26571160847524      0.01188184727478
  N   -1.51533324208656      1.50986831881450      0.03992829521898
  C   -0.46564686836454      0.68935628815296      0.04812098600215
  C   0.77277482316754      1.33505429652797      0.14188056305269
  C   1.95968908674329      0.63403455407966      0.08628344942833
  N   3.21352543516101      1.11025170183039      0.15001998655061
  C   4.00119634011976      0.00222194496558      0.03922784659682
  N   5.33995750974040      0.15405592583368      0.03659685988178
  H   5.93540225688434     -0.64071645579395      0.17466191309625
  H   5.69768883548049      1.05342948512719      0.30654449915435
  C   3.28348433288352     -1.21235893429119     -0.09934873380965
  C   1.94696248926105     -0.83811665155047     -0.07134001311860
  C   0.73420011386138     -1.49692992748885     -0.14848073933246
  C   -0.48430596928656     -0.80822138445176     -0.07232360612895
  C   -1.64303912255770     -1.57400729585899     -0.07245477273048
  H   -1.46206179852679     -2.64232102035028     -0.14319771682371
  H   0.70731496858867     -2.57554548778157     -0.24697959101404
  H   3.69750859322583     -2.20126505185422     -0.21066563892061
  H   0.77276380683063      2.41140035055273      0.22874961364669
  N   -3.58343574766908      2.42345576292549      0.01948771112101
  H   -4.47391446772093      2.38131327040541     -0.44565348245097
  H   -3.04543083100154      3.24345521092046     -0.20643225992480
  H   -4.59736558491934      0.13653456458369      0.12603211320404
  H   -4.81350683197147     -2.08659488817705      0.35106892970193
  H   -3.54692545778289     -3.16621216711227      0.30896627392583
