31
Coordinates from ORCA-job ./opt_b97-3c_parallel
  N   -4.93062052121463     -1.78837377529841      0.11978285902295
  C   -4.09854152594901     -0.97275630311423      0.07898710498503
  C   -3.16902304061340      0.06260769208420      0.02947323237243
  C   -1.76808500580624      0.00729469992221      0.01604205221157
  C   -1.26913048889625      1.38598638841048     -0.04099045656567
  C   -2.35385461806992      2.24921731545080     -0.06455646043916
  C   -3.52539777776227      1.45461463234229     -0.02050923393092
  N   -4.78705331848993      1.89231104635460     -0.02287826322496
  H   -5.55337047195338      1.24246487248677      0.01191376972087
  H   -5.00233851700719      2.87082419189357     -0.05832635544462
  H   -2.32611459149659      3.32599883113478     -0.10563869013645
  C   0.10074205405508      1.60213196610014     -0.05993033580928
  C   1.03214635851601      0.56661837039506     -0.02635288531997
  C   2.40823291308031      0.95831640203298      0.01033370254459
  C   2.64603583783673      2.35459061703925      0.10414042649621
  N   2.94689146394259      3.47414839636705      0.19354246305824
  C   3.61315805042566      0.21688424779548     -0.03903105959322
  C   3.70820478313503     -1.18307118297669     -0.08662855883643
  C   2.72039655026471     -2.12395855666154     -0.06485142222637
  C   1.32401926396441     -1.98812768971729     -0.00999589525389
  C   0.67053375135495     -3.25353628523021      0.02153906228706
  N   0.20005353407974     -4.31473654570845      0.04682964281175
  C   0.51383375374606     -0.83196779970787      0.00162209342620
  C   -0.87315898567581     -1.03554970548015      0.03586814421527
  H   -1.25172739805179     -2.04663394238326      0.06551775190215
  H   3.06655771095622     -3.14812136000317     -0.09133538499022
  H   4.71674102656111     -1.57425889948956     -0.14432821070219
  N   4.80400688679619      0.88987958892415     -0.08858751242442
  H   5.63796551052356      0.38471923915610      0.14707509719274
  H   4.82835377390057      1.87397596217315      0.11549480762327
  H   0.44996144034748      2.62300420770774     -0.09487088677254
