24
Coordinates from ORCA-job ./opt_b97-3c_parallel
  N   -3.90655071856456     -1.56332478756759      0.00986096287762
  C   -2.92246974785877     -0.62734840436875      0.00251866662985
  N   -3.32105047003229      0.61580101869868      0.00129590435699
  C   -2.49859918343234      1.70353378637166     -0.00357639015764
  N   -1.21850857972561      1.88561396823880     -0.00342216867654
  C   -0.20947855070402      0.95656159974182     -0.00092566973382
  C   1.06805174515988      1.46128956863702      0.00229890726661
  C   2.20237542392721      0.63349584259987      0.00256460767579
  C   2.02661937660843     -0.82970334695827     -0.00234801877028
  C   3.33915759073793     -1.42441038079726     -0.00222146330242
  C   4.24007737895087     -0.39814710551668      0.00244021089795
  C   3.55258563038491      0.87609173205573      0.00539275881528
  H   4.03228185621212      1.84239964417678      0.00905668170928
  H   5.31475755355404     -0.50779739029049      0.00375126169207
  H   3.55251938921391     -2.48086524058575     -0.00516819591023
  C   0.78285483898838     -1.35837573197163     -0.00611474621071
  C   -0.38687451462479     -0.51475377528618     -0.00383146511635
  C   -1.58230558904302     -1.16501111550828     -0.00301076214309
  H   -1.52752962528223     -2.24863713442885     -0.00514469070912
  H   0.63387836655026     -2.43172266228397     -0.00954181497299
  H   1.17132686598146      2.53754144476059      0.00393892719390
  H   -3.07301126557605      2.62554346303560     -0.00718477534117
  H   -3.72084292823694     -2.54691560867523      0.00804519169912
  H   -4.85871008348878     -1.24553429337763      0.01136314612989
