26
Coordinates from ORCA-job ./opt_b97-3c_parallel
  N   -4.89303692785419     -1.26809237901650     -0.80903208956550
  C   -4.05589531852085     -0.52201272697636     -0.50046738650261
  C   -3.09888681180896      0.42547850435736     -0.12475037854360
  C   -3.39034652118334      1.79344365411296      0.27404508479747
  N   -2.33875480961953      2.51256779688842      0.59347998767552
  C   -1.26789322447455      1.65811756058038      0.41842868866283
  N   -0.03138650433758      1.99533788517470      0.60565929595479
  C   0.92124594121297      1.03614797393542      0.34413089303828
  C   2.18449937054661      1.53366757734986      0.22536002132731
  C   3.38027549819553      0.85215429244996     -0.19293750217899
  N   3.64860646709616     -0.42829194427437     -0.14489996841587
  C   2.75809483486641     -1.37078563354075      0.23506698082547
  N   3.32035008627303     -2.51372002622154      0.67838274514923
  H   4.31079248679172     -2.63653139200580      0.57610247350629
  H   2.73395736332029     -3.32433660509164      0.76635244626323
  N   1.43881434953149     -1.39666700644484      0.13836779510884
  C   0.58237128101629     -0.38541576389029      0.08512621341962
  C   -0.77071028516065     -0.69426724242522     -0.16741323548372
  C   -1.12544408897443     -2.02976169512769     -0.46500613943999
  N   -1.42174493108595     -3.12365183647205     -0.71318222400141
  C   -1.72363563528684      0.31829196681422     -0.03445532076701
  N   4.37794660730673      1.65484262172175     -0.62726746218384
  H   4.20825039036715      2.61515955507752     -0.85955855496297
  H   5.20667945143810      1.22007233696602     -0.99277103569708
  H   2.25974769873339      2.60290240773161      0.37736477294838
  H   -4.38741371368906      2.21081352102681      0.31151715336535
