21
Coordinates from ORCA-job ./opt_b97-3c_parallel
  N   -4.27069086839255     -2.11329609278800     -0.22721506748305
  C   -3.54022402126190     -1.21281556535382     -0.14476036695747
  C   -2.67504833253383     -0.11883591983745     -0.04326379030248
  C   -1.28133800027856     -0.10464242289695     -0.02757878385339
  C   -0.91314086022014      1.33026339011830      0.09461245265049
  N   -2.01752135203270      2.11485206481947      0.16655442289987
  C   -3.04054756610360      1.26134941040421      0.08225208474028
  H   -4.05920522102489      1.62180098158232      0.11026205205010
  N   0.32725755133693      1.74264301380115      0.09329774471370
  C   1.28465870198567      0.78456569002398      0.00256008351971
  N   2.50619032315994      1.29933170865373     -0.09176168503441
  C   3.68578433144305      0.70651606318120     -0.13493353781878
  C   4.04728773338697     -0.62945960861534      0.00667260270013
  C   3.20236946998230     -1.72304809245837      0.10429332138540
  C   1.82261743860537     -1.72170081938234      0.05957163223962
  C   0.90895853600559     -0.66080347709915     -0.02565849389045
  N   -0.37402095823543     -1.06304452003838     -0.06515183711586
  H   1.33111784732638     -2.68587331654763      0.09450944965709
  H   3.67228465642504     -2.69312180672488      0.20086003534550
  H   5.11248900027608     -0.82640722338270      0.02026840280599
  H   4.50811233295037      1.40409649324054     -0.26340675495162
