25
Coordinates from ORCA-job ./opt_b97-3c_parallel
  N   5.08454315805950      0.35457067427363     -0.00975775201042
  C   3.74668542989430      0.23713298090024     -0.02652216975433
  C   2.83453296147067      1.31540797456470     -0.04152953728488
  C   1.56484997683174      0.75578823756262     -0.03520214294409
  C   1.71875628115510     -0.74040820126049     -0.01315001059866
  N   0.66242335241271     -1.55220864542584     -0.00324452065031
  C   -0.54421928679531     -0.97216814382943     -0.01255013543647
  C   -1.63213981516112     -1.85575457534902     -0.00369302298018
  C   -2.99682660655896     -1.63348345767657     -0.00350593703477
  N   -3.73388734783599     -0.52906971122247     -0.00614340184861
  C   -3.24991153625962      0.70952509939863     -0.03469862394304
  N   -4.22126443244520      1.67922064802921     -0.09061071986229
  H   -3.99401925661811      2.60999562165806      0.20855642212582
  H   -5.14833190194203      1.36063330890600      0.13207227435291
  C   -1.91549361520182      1.16572720207319     -0.05587687432021
  C   -0.70002070238783      0.50533117348422     -0.03410306751739
  N   0.37715565907709      1.33180868728596     -0.04586914063963
  H   -1.79030558337773      2.24196765967707     -0.09244224792510
  H   -3.60025014642766     -2.53647662941085      0.01014069811141
  H   -1.33080245534286     -2.89564148680836      0.00908444108779
  C   3.06122990015167     -1.02420535650840     -0.00697262650467
  H   3.52372682697682     -1.99784474506439      0.01127216701982
  H   3.08078444700248      2.36444625277980     -0.05492157582719
  H   5.52117984088621      1.25050831569463     -0.12225950388850
  H   5.66973604523592     -0.45427217493213     -0.10422193192698
