31
Coordinates from ORCA-job ./opt_b97-3c_parallel
  N   5.11127345705729      1.18267129132890     -0.88901187632523
  C   4.16703117196447      0.60871208038755     -0.51935525897407
  C   2.98963142778762     -0.03763500786314     -0.09286450605429
  C   3.16531149430975     -1.19970334717559      0.69576793852205
  N   2.33939043375256     -2.15891457403081      1.00860383319084
  C   1.07479715656895     -2.23461823356747      0.54057407590100
  C   0.19461193382854     -1.28219301777722      0.08352463257679
  C   -1.15209803831140     -1.74571328448607     -0.20309408197512
  N   -1.39704187030973     -3.06564033387558     -0.42857623396390
  H   -2.33710971101789     -3.32310849250528     -0.66759059165927
  H   -0.69050877247768     -3.61634727842329     -0.88006901485852
  C   -2.18777231932229     -0.83058425379548     -0.12263237617517
  C   -1.92262173622451      0.55995166649902      0.14594235905200
  C   -3.17550036424068      1.16930066101152      0.18302787191898
  N   -4.17765357403505      0.25753807660294      0.01162778348537
  C   -3.59864857087685     -0.93298462859193     -0.17647798688114
  H   -4.20409215001098     -1.81748003685859     -0.31345773760950
  N   -3.45123847597961      2.53330857262941      0.36070733421036
  H   -3.19592850915101      3.08420537615624     -0.44970932502443
  H   -4.44330654627821      2.65474646035378      0.51600028803999
  C   -0.61090952496204      1.05665749021678      0.22600583753396
  N   -0.45165459678418      2.43107379211539      0.40890345423949
  H   -1.29724200049433      2.86084748376728      0.76445589749301
  H   0.33938880690610      2.67620337473235      0.98468535675303
  C   0.46263984647860      0.17313519765842      0.07142206390136
  C   1.76343055448471      0.64589747361582     -0.31607928967489
  N   1.84780074424624      1.83014786636451     -0.94402460672357
  H   2.74374423375635      2.21325944753223     -1.19426340852088
  H   1.02530763590546      2.39395459351158     -1.08113783145150
  H   0.68057921169891     -3.23909762543410      0.63861968154181
  H   4.17668162512967     -1.33927717029983      1.07082747861303
