28
Coordinates from ORCA-job ./opt_b97-3c_parallel
  N   -5.87933489576641     -0.55243500049156      0.00189741789533
  C   -4.72169612724638     -0.59473996126318     -0.09837082060660
  C   -3.31313439509595     -0.59489037860962     -0.18885541184664
  C   -2.71737900004330     -1.74724585367053     -0.77257813837559
  N   -1.50338080252205     -2.17446740318971     -0.71483498662628
  C   -0.39777554558585     -1.55344645330623     -0.24012027662295
  N   0.58305870910872     -2.33751352578540      0.14198144327135
  C   1.79702157672766     -1.80212993135853      0.35463412712554
  C   2.13955551353962     -0.42704902846711     -0.06277488350174
  C   3.57422053119366     -0.28693339477230      0.06117123453338
  C   4.33846891655413      0.85645972965592     -0.19874688416254
  N   4.98783233701648      1.79794304215983     -0.40738084260014
  C   4.03587466102760     -1.48607185951302      0.57445364724789
  C   2.96234430940962     -2.42006057837120      0.73963742218145
  H   3.05930191442811     -3.44198670240050      1.06513954689360
  H   5.06978118058371     -1.68563778695964      0.80784598002968
  C   1.13690218765960      0.40316188209267     -0.46067845040738
  C   1.39073991364874      1.65834656185460     -1.06104328030934
  N   1.59614119620102      2.63985526268982     -1.64470469963980
  C   -0.23181204266111     -0.08321073141084     -0.27718368787797
  C   -1.23098889177187      0.80817105862960      0.05882449549440
  C   -0.87624191916875      2.14959133952033      0.37000298104150
  N   -0.72870121402337      3.24035050525353      0.73946653980223
  C   -2.65128227911241      0.54719595624586      0.27966363457479
  N   -3.36169376568515      1.51038932554377      0.88373584558042
  H   -2.95131235418010      2.39617864862394      1.12454193156904
  H   -4.35788578437621      1.41556529605939      0.98692309255329
  H   -3.41178491476015     -2.40701585265902     -1.28462650331654
