27
Coordinates from ORCA-job ./opt_b97-3c_parallel
  N   -4.93339367095819     -1.32479105487318     -0.62048211922282
  C   -4.10698505411571     -0.54823816460252     -0.36273179626906
  C   -3.13994058438240      0.41288091707515     -0.04811856350759
  C   -3.38720385226380      1.75440174806795      0.36226282122116
  N   -2.29225311240990      2.48272722227662      0.61083746030697
  C   -1.25615248056112      1.64712575891607      0.36799864972763
  N   0.00803656285595      1.98908412273344      0.43121429445586
  C   0.93930575583917      1.05494910163042      0.14317218998855
  N   2.14720597470671      1.55359580336796     -0.01368711088331
  C   3.33098485458987      0.97617422293010     -0.18455133535347
  N   4.28605002872519      1.83131635666887     -0.63623249793470
  H   4.06961460666515      2.81200783673158     -0.60664686514834
  H   5.25209797721114      1.56465541415929     -0.66164491160956
  C   3.71276877550648     -0.33972394976509      0.12007086129618
  C   2.87271797016861     -1.42981709279495      0.26161682780919
  N   3.41426507417938     -2.64131662921020      0.58366051798692
  H   4.40408102879023     -2.77903529880142      0.49309010205812
  H   2.85695332748532     -3.46916291788772      0.47658235322060
  C   1.46935797651936     -1.41551486811700      0.06962989587165
  C   0.57648337662236     -0.37909289005941     -0.04100845567713
  C   -0.81316770007141     -0.69892570336546     -0.22392853519533
  C   -1.18610723527300     -2.03397379266661     -0.49528484129779
  N   -1.42749944105887     -3.14906536155790     -0.71347984504706
  C   -1.74580124167005      0.29932556754153     -0.04153720991795
  H   1.02266594303934     -2.40252922643014      0.03147086741452
  H   4.77722004586881     -0.52646930591798      0.21096131029765
  H   -4.37137782350866      2.18736249735062      0.47351653180911
