24
Coordinates from ORCA-job ./opt_b97-3c_parallel
  N   5.00722389765145      0.41802054100282     -0.01817812101691
  C   3.68664774120337      0.21477846781913     -0.00325666011559
  N   2.85258661647099      1.23802392093825      0.29505077665131
  C   1.62253204194380      0.69252310476110      0.21265436081764
  C   1.69085628525414     -0.75084113737795     -0.14466650413307
  C   3.02807020188072     -1.02957396385424     -0.28557280422584
  H   3.48654599446064     -1.96987962262976     -0.54193836993769
  N   0.61526402661705     -1.54292852815646     -0.24972285373826
  C   -0.57991465886229     -0.98301993658059     -0.08106280420224
  C   -1.65915619872440     -1.86636456599844      0.05349300771632
  C   -3.00150251167738     -1.60317275545317      0.27487515469142
  N   -3.70289104396906     -0.48344305677542      0.20637395670161
  C   -3.15331193637898      0.70799478081594     -0.06410962425368
  N   -4.03817737455530      1.65265302110955     -0.47602840162695
  H   -3.74516653862832      2.61180917007391     -0.43865697433337
  H   -5.01474893145755      1.44518742521350     -0.37105238363889
  N   -1.90337070693987      1.16081541501072      0.07773127984632
  C   -0.76091178221177      0.49647647588512      0.12542285587789
  C   0.39169305246954      1.27624026241746      0.34629506706244
  H   0.27317781754676      2.33470768018541      0.52653355171053
  H   -3.60728032283746     -2.47135231386629      0.51904721241629
  H   -1.37110197242671     -2.90971506050452      0.05437380704321
  H   5.65423085650014     -0.32007509150550     -0.21780711990066
  H   5.36065826087049      1.32998397016941      0.21042524038819
