24
Coordinates from ORCA-job ./opt_b97-3c_parallel
  N   3.38003059861257      2.29835814469142     -0.33944497152218
  C   2.54383176306357      1.23066673080261     -0.11802208680946
  C   3.08527670037103     -0.04007928084228     -0.09857536215174
  C   2.39971106394634     -1.25357101805343      0.08502207654793
  N   1.10762071794917     -1.51823691137659     -0.02693888386805
  C   0.04918644591193     -0.72518590652998     -0.09023216630470
  N   -1.10105235137844     -1.37514509881103     -0.34016568040162
  C   -2.21195993742091     -0.66727421828582     -0.25218447022911
  N   -3.45494009716597     -1.10846994012945     -0.43607246332564
  C   -4.23831554584682     -0.02194668073254     -0.13857531360507
  C   -3.55844320894981      1.13583998657055      0.23793319366964
  C   -2.20912559346774      0.78224140861565      0.16441012130426
  N   -1.09615970694297      1.45932082900567      0.33047891705703
  C   0.05742760688627      0.75674419857474      0.14322916558939
  C   1.18026015778626      1.54794589275686      0.07157264361167
  H   0.94709205779937      2.60351264771378      0.15709169446760
  H   -3.97925803646629      2.09053443509582      0.50347229584419
  H   -5.31315327228707     -0.12375633985157     -0.21126755335513
  N   3.15266662407197     -2.36023234892155      0.37562781926282
  H   4.14432957960312     -2.34226394378253      0.22247614256303
  H   2.69258861828437     -3.24153889592576      0.22529628538382
  H   4.16399114278723     -0.10820619412083     -0.19214220786228
  H   3.04755970026259      3.21120890750201     -0.08577618013447
  H   4.36449961009016      2.16631329513422     -0.19175384363194
