25
Coordinates from ORCA-job ./opt_b97-3c_parallel
  N   4.78032345695552      1.97683341547159      0.91703320931783
  C   4.08416193654073      1.10545155190452      0.58334768154293
  C   3.24499748713661      0.06353415440974      0.18287676436198
  C   1.85645497993801      0.06734333700900      0.08887168734737
  C   1.51068911199756     -1.29266438358810     -0.40282664751376
  N   2.64063565390304     -2.05135329920945     -0.59129862322457
  C   3.63854324598935     -1.25551136379920     -0.24592825001306
  H   4.66286728259029     -1.59964620090587     -0.29274546876871
  N   0.29606576046651     -1.70650507140129     -0.61326006786031
  C   -0.71516060184490     -0.81820896101220     -0.34058718432849
  C   -1.94670120658915     -1.39848601647813     -0.25257296896830
  C   -3.18587713857214     -0.80657705734599      0.16332378764819
  N   -4.14739101892147     -1.68353094358431      0.54421333002474
  H   -4.99635397854860     -1.30445708974194      0.92493865408057
  H   -3.91270327211770     -2.62907782284133      0.78115118806310
  N   -3.53002123079644      0.45656909827931      0.15647941061349
  C   -2.69835747421384      1.47063436096647     -0.16715677056836
  N   -3.34077157147200      2.59128676097681     -0.57534860652271
  H   -4.33416028662243      2.64278728931422     -0.44363295883840
  H   -2.81483394699510      3.44594462427865     -0.60047800227883
  N   -1.38674018835665      1.58484494881152     -0.04872839887023
  C   -0.46419749575109      0.61964919079352     -0.02563712210510
  C   0.85132750014136      0.99829842860018      0.24046534180917
  H   1.05128352592701      2.03104856036804      0.48868719507783
  H   -1.95198014038442     -2.46610539927572     -0.43307458892635
