23
Coordinates from ORCA-job ./opt_b97-3c_parallel
  N   -4.72946104016089     -0.06291072621497     -0.00240713724121
  C   -3.39179268542964      0.01151975737541     -0.01610423362139
  N   -2.65911327757024     -1.13258613150766     -0.01212044301482
  C   -1.38383771306644     -0.70761574567927     -0.00826370528317
  C   -1.30688171659529      0.77119907563020     -0.00993887693317
  C   -2.61274732196557      1.20933061440934     -0.01400072741139
  H   -2.97040653134865      2.22526590975612     -0.01230114049534
  N   -0.15616212416292      1.45358745140593     -0.00744180547625
  C   0.98477412028667      0.76127171072537     -0.00481866800501
  C   2.13719014881462      1.56894445273295     -0.00076419133249
  C   3.47524933787047      1.23770079987661      0.00280913463670
  C   4.04221428623843     -0.02862360129193      0.00269950090778
  C   3.37518567671861     -1.24687439795646     -0.00112857681797
  N   2.08623897074637     -1.54345710151158     -0.00467914643034
  C   1.01729194412994     -0.73940872580166     -0.00562161274442
  C   -0.21201595947309     -1.42118594591554     -0.00850356338497
  H   -0.19512674507989     -2.50113865272609     -0.00857714259213
  H   4.01205889422071     -2.12775218824009     -0.00109748420020
  H   5.12424286994610     -0.08581268936116      0.00566896377862
  H   4.16511187257450      2.07278353996980      0.00596050356540
  H   1.89602180521953      2.62427345424419     -0.00027192435663
  H   -5.29861700454026      0.75272229584356     -0.12302014892389
  H   -5.15805734567308     -0.96685064366308     -0.09274013682371
