24
Coordinates from ORCA-job ./opt_b97-3c_parallel
  N   2.01307427206417      2.97331591231270     -1.03468975017828
  C   1.83830552888637      1.91888799004045     -0.58232555190352
  C   1.78080154231194      0.55943461565082     -0.15903110737967
  C   3.06905973854535      0.00243179697293     -0.08658658033718
  N   3.48833321203072     -1.19996922904757      0.27666650824051
  C   2.72715548073649     -2.26741731685784      0.40308684037085
  C   1.37073908382681     -2.43881147348632      0.11425379201397
  C   0.35013963156643     -1.51922871823379     -0.08015063007790
  C   -0.93462122413602     -2.06546092168029     -0.28630765747417
  C   -2.05086756965438     -1.27598170043655     -0.23437514590132
  C   -1.91155431128661      0.15739571024719      0.10136675976668
  N   -3.09302203884106      0.74512699823408      0.22471989879077
  C   -4.00522882341106     -0.25046101404904     -0.04271439800137
  C   -3.43617557464659     -1.48732049699148     -0.31806295187988
  H   -3.94844155384979     -2.40828974881421     -0.53960851067306
  H   -5.05974157496135     -0.01692941445109     -0.01957233237805
  C   -0.63846819008515      0.73674100872429      0.23595598218308
  C   -0.58653194112374      2.09545226783022      0.63488528206399
  N   -0.60147192810090      3.17795163060024      1.05050845834710
  C   0.51299680247404     -0.04712831384513      0.05060119193861
  H   -1.01888006851317     -3.13711124923694     -0.41141724548057
  H   1.05500827288439     -3.47588879650272      0.09597376560496
  H   3.25972635227029     -3.16044648681494      0.71363338412686
  H   3.87172312023587      0.69219793213296     -0.31900280668713
