36
Coordinates from ORCA-job ./opt_b97-3c_parallel
  N   -4.92065359055182     -0.48896688694781     -0.00867584327708
  C   -3.54308047405209     -0.33551686096023      0.02152319777492
  C   -2.79450211558293     -1.34947811378226     -0.55880153629255
  C   -1.42667858103419     -1.59703432293124     -0.42844375178310
  N   -1.07159130975369     -2.87535739711627     -0.78647932507899
  H   -0.09650910766120     -3.07320048506860     -0.95299158935913
  H   -1.73498362270053     -3.38697412705598     -1.33858721018970
  C   -0.40535913752625     -0.68221204874790     -0.00254385045592
  C   0.90841214703298     -1.15635690875458      0.22716055414849
  N   1.21052040905427     -2.49594713853653      0.46193506867174
  H   2.19124196262785     -2.61565276351254      0.70945376124022
  H   0.57849522108340     -2.97427543752020      1.08366881353172
  C   1.99796495220224     -0.28607600330631      0.09206690207458
  C   1.79830399790193      1.05520412746021     -0.38587874838476
  C   3.06728403479229      1.63498446334216     -0.58199840087808
  C   4.02743032252031      0.68507122014024     -0.21293787507916
  C   3.38663524513628     -0.49462290603430      0.20292735953967
  N   3.99012549295168     -1.71990583594172      0.64885180835037
  H   4.66355289983656     -2.05566901049715     -0.02908595871714
  H   4.50274364120930     -1.57248220128860      1.51024562104256
  H   5.09877359321433      0.83133759653420     -0.23681413236185
  H   3.28752059153450      2.64463378483114     -0.89617778272016
  C   0.50818316575807      1.59095620050075     -0.43279898606782
  N   0.40465682570344      2.96112151865214     -0.70429837322168
  H   -0.42191999288070      3.22265124679780     -1.21804244942403
  H   1.23329253854586      3.31773859181948     -1.14995580038269
  C   -0.60674629224590      0.79180485283460     -0.09206605604893
  C   -1.79792877519895      1.41290682358710      0.41427676777814
  N   -1.74312633091237      2.73224491398276      0.79949796436412
  H   -2.49864668699791      3.06960830307438      1.36643116740623
  H   -0.84363226286547      3.15198186406881      0.96512602260692
  C   -3.05280275538740      0.83391446415934      0.59109656523088
  H   -3.78993605706205      1.45955152820681      1.08415583409173
  H   -3.37042413641788     -2.14328778369862     -1.02284701617002
  H   -5.44329619761442      0.11901164995696      0.59757655527174
  H   -5.25796458655940     -1.43617150034806      0.01082223526879
