23
Coordinates from ORCA-job ./opt_b97-3c_parallel
  N   -5.25220730047262     -0.52185888415260     -0.22953390583510
  C   -4.09113857343378     -0.47412675440608     -0.19028748262383
  C   -2.68641474131793     -0.35179211136319     -0.11497346220533
  C   -1.91218169199232     -1.50213768424666     -0.31891155285757
  N   -0.63938684411446     -1.72477103366690     -0.10256517098594
  C   0.34588328633974     -0.85026259505224      0.11095736901841
  N   1.50639869012362     -1.36194000998825      0.47884311858137
  C   2.58764729225417     -0.58889530870919      0.36554290878503
  N   3.81263546613938     -0.92073603065123      0.73582997803101
  C   4.59981628219414      0.13860880952327      0.32625164065232
  C   3.91925754868164      1.17370513036495     -0.29413366462741
  C   2.57401901605051      0.77121312802136     -0.28823440004363
  C   1.36833203356154      1.35278548188512     -0.55116279269886
  C   0.19773973626506      0.63193995255464     -0.21750789434280
  N   -0.90880280081537      1.32796967675198     -0.11915424819565
  C   -2.15525290644212      0.93796096289901      0.15625732361240
  N   -2.96329206090334      1.91382289567873      0.61224153847282
  H   -2.62113896155484      2.85749845186993      0.59153754841677
  H   -3.94947868119819      1.76228898344375      0.72883409571502
  H   1.25978306940499      2.38291431618882     -0.86316075472526
  H   4.33333323993376      2.09143696033378     -0.67652529345145
  H   5.66452561400678      0.09402488238160      0.50779001790145
  H   -2.46835596402007     -2.37872378756394     -0.63732550549908
