25
Coordinates from ORCA-job ./opt_b97-3c_parallel
  N   -1.16097567202416     -4.08768475837490     -0.00116796364993
  C   -1.43552938444964     -2.96063641830976     -0.00103453405833
  C   -1.84051447184348     -1.59308453236994     -0.00082893106963
  C   -3.23389937952498     -1.47023141423316     -0.00121754243527
  N   -4.03211088121064     -0.40635416614618     -0.00077703732048
  C   -3.63022269588402      0.84486491200023     -0.00037130342953
  C   -2.34545929866833      1.40681853650785     -0.00058919128429
  C   -1.08221085981736      0.84091750460574     -0.00062292114112
  C   0.02345848096864      1.75098217208362     -0.00073234138700
  C   -0.19051357990979      3.15152063174166     -0.00119968263129
  N   -0.38989351335768      4.29392814252067     -0.00186153573197
  C   1.31938041986729      1.27094630546222     -0.00025688078065
  C   1.56600982784649     -0.17133708876145      0.00027719630347
  C   2.95903372536702     -0.28903498989781      0.00071691727972
  C   3.71987126512875     -1.46343217177003      0.00133441316584
  N   4.34849666757205     -2.44119163914948      0.00192685717862
  C   3.44013872366092      1.05602663408752      0.00041530673815
  N   2.47213689292192      1.97913326487432     -0.00015776511711
  H   4.48088143062366      1.34507466144465      0.00062964942736
  C   0.51381302921938     -1.06502360201711      0.00019187637857
  C   -0.80410088001084     -0.61454337485129     -0.00033181709320
  H   0.71826333993860     -2.12589913535172      0.00046050599239
  H   -2.36105175815502      2.48940203758544     -0.00062711210913
  H   -4.44067044828628      1.56624926281494      0.00004826810735
  H   -3.77085926457247     -2.41128535239605     -0.00180498343250
