31
Coordinates from ORCA-job ./opt_b97-3c_parallel
  N   -4.78681809396148     -2.38401168310364     -0.57382209882646
  C   -4.05876982876112     -1.48938971305681     -0.39817070525783
  C   -3.24782861104682     -0.37989770892625     -0.18215665025844
  C   -1.83966554816445     -0.30243168583907     -0.12332232932986
  C   -1.48142591376058      1.10423903047722      0.13533210480691
  C   -2.64804524846281      1.83955308767164      0.22969326215962
  C   -3.73706414223685      0.94274225950849      0.03387591573581
  N   -5.03309817376661      1.26778517902571      0.04991965140369
  H   -5.33387272234797      2.21400762683771      0.18701261523844
  H   -5.73637986318534      0.56791741511218     -0.11117646160788
  H   -2.73587203062835      2.89856151426119      0.41222426861079
  C   -0.13899550317611      1.46216681708871      0.22042899629455
  C   0.88561828275724      0.53797190498028      0.07785645022799
  C   0.51299958079442     -0.90883291581661     -0.06952366360784
  N   1.30773298209335     -1.96156810638751     -0.03160886947273
  C   2.63361371063569     -2.05307925505885      0.08767878416902
  N   3.05717660288299     -3.35540137389704      0.22666181295562
  H   3.93374287546931     -3.52675904377500      0.68561633755337
  H   2.32284412725311     -4.00769547322014      0.44141355763833
  C   3.60873412754831     -1.06798361301285     -0.00741987122083
  C   3.45258247442776      0.31337571643931     -0.07754099046746
  N   4.61125564003877      1.04630083649870     -0.13723735667068
  H   5.43516525565759      0.57894968856909     -0.46818038480349
  H   4.55490594683066      2.01971094527327     -0.38325548509654
  C   2.22179246829809      1.02026636208203     -0.02796859487859
  C   2.37103550634259      2.42420555742979     -0.10825470656854
  N   2.56837687511290      3.56809254456178     -0.19165838328152
  H   4.63321956300548     -1.42259540166481     -0.01930468485941
  C   -0.85261331190296     -1.24296128617560     -0.21943112433810
  H   -1.08198795778250     -2.29065475495183     -0.34704209198308
  H   0.10681966373586      2.50496922586891      0.36170972433503
