24
Coordinates from ORCA-job ./opt_b97-3c_parallel
  N   -1.87503412394179     -3.54419421954280      0.33222319954747
  C   -1.97966332031563     -2.39528366245137      0.20771992310206
  C   -2.23422452241759     -1.00422491702548      0.06949271255293
  C   -3.57407682776901     -0.62949006855759      0.27423425933717
  N   -4.19244812153204      0.50229041038714      0.00634317924143
  C   -3.58770551846890      1.61844815364979     -0.39465456465004
  N   -2.34528086630893      2.03072820598652     -0.26130974342692
  C   -1.23812778869229      1.32484126055977     -0.03210258331083
  C   -0.07625344659930      2.06450388827071      0.22728643220055
  C   1.13685797870230      1.41831022426232      0.21451433211796
  N   2.37761162340407      1.91900207231369      0.35036821605019
  C   3.19650407062266      0.87271678139848      0.11947841184067
  N   4.51495292277027      0.99443625601002      0.16504089386159
  H   4.92188769868893      1.88806358873087      0.38014970634349
  H   5.11698828806060      0.20870237064590     -0.00947780402422
  C   2.49646401885006     -0.36654717696131     -0.17966064246752
  C   3.12685186012001     -1.57908745861575     -0.45464339159616
  N   3.74418386880055     -2.54086194842255     -0.67371427472378
  C   1.15506922711166     -0.02763976142374     -0.10509822574188
  N   0.06022169617157     -0.77434147651233     -0.24120013322694
  C   -1.11148147085261     -0.16267417967782     -0.13772569536069
  H   -0.15489637296650      3.13642638149886      0.33045685052229
  H   -4.26125797225593      2.36275136167914     -0.80659572834932
  H   -4.21899842348216     -1.41412264830250      0.65504096486051
