25
Coordinates from ORCA-job ./opt_b97-3c_parallel
  N   -2.41035817162736     -2.93648033408124      1.00836138670042
  C   -2.21255211662517     -1.88235096138225      0.56410574840692
  C   -2.11874140573791     -0.52335949251371      0.14822222432325
  C   -3.39626583284694      0.06283382560661      0.06094077907899
  N   -3.79662093486418      1.28161170222098     -0.24534545650692
  C   -2.99468099786302      2.33392470671710     -0.33726043226034
  C   -1.63639380059545      2.45952529449575     -0.09599026370121
  C   -0.62110779492382      1.50997289941673      0.07364026798179
  C   0.66867659041633      2.02496728145017      0.26202325299006
  C   1.76276390011691      1.19229708431989      0.21172387333781
  C   1.58116007047778     -0.23441367211315     -0.08850682059246
  N   2.76500856506756     -0.81726002379034     -0.18588862276570
  C   3.62237186066122      0.22963342920817      0.07108999737949
  N   4.93480016039101      0.03454877714055      0.07956484061415
  H   5.30297938303404     -0.88127820398452     -0.10224775213325
  H   5.55575070681736      0.79872271481101      0.27265750291484
  N   3.07333555488481      1.45016238128765      0.30886312474826
  C   0.29277643190963     -0.78064516762977     -0.22795749762435
  C   0.20789600405675     -2.13498172236948     -0.62955089376259
  N   0.22256286972407     -3.21738732099240     -1.04709433965641
  C   -0.83027069707438      0.04757444288351     -0.04383597278712
  H   0.80270086169572      3.09128175993689      0.37618145417098
  H   -1.28619392848360      3.48517315944515     -0.09958092365752
  H   -3.51059281723625      3.25473297359797     -0.59018290534178
  H   -4.21112915848776     -0.62707511910599      0.25106072644978
