33
Coordinates from ORCA-job ./opt_b97-3c_parallel
  N   -5.77657878172278     -1.15771114952457      0.36474421417176
  C   -4.64916026386394     -0.90108737289956      0.22540658784404
  C   -3.27774091745378     -0.62124147743112      0.06341550593328
  C   -2.43934455918878     -1.74448559303199      0.00727494765773
  C   -1.03551678808233     -1.74730675030831     -0.12084044203461
  C   -0.08076108293329     -0.75747008869197     -0.10726820907349
  C   1.26190266805486     -1.22872407945783     -0.16457094238200
  C   2.32317496825315     -0.38300201239895     -0.06856546907810
  C   2.08160801261401      1.05755416533441      0.08713310868763
  C   3.30129570386608      1.69174444440725      0.18305780832703
  C   4.32071917935451      0.68986827914131      0.08893977247655
  N   5.63730863910970      0.91857155928658      0.14235911228987
  H   6.00355958679134      1.84756617880934      0.22674007479792
  H   6.29159619351831      0.16144563193485      0.04991309863541
  C   3.72739602546110     -0.58831348133630     -0.06429166604551
  C   4.42874632083806     -1.78412285468015     -0.18017097617760
  N   5.05198857320911     -2.76595748619743     -0.27334306587253
  H   3.47745959718453      2.74882275267221      0.30363735718194
  C   0.76868654582127      1.53405996367059      0.10319548065844
  C   -0.32762316652915      0.69838027867675     -0.01282097365968
  C   -1.62872059352018      1.30205942431411     -0.11128424649368
  C   -1.62791973621426      2.71283264076799     -0.22211847885908
  N   -1.70132449127915      3.87057736151513     -0.31258707837562
  C   -2.92830930765455      0.75782255449106     -0.08463424320269
  N   -3.97894059037312      1.61326715071594     -0.21148735349518
  H   -4.91665132653474      1.28569131538719     -0.06893989303897
  H   -3.83207974717157      2.60382377518601     -0.13484605187291
  H   0.61596836043810      2.60002060583785      0.18614419869781
  H   1.42595982062329     -2.29451786767914     -0.25193483121229
  H   -0.62412160763662     -2.74622004169903     -0.20918598967974
  N   -3.01140052979628     -2.98194841763540      0.04251317443302
  H   -2.43476052903512     -3.77628984060851      0.24725603905082
  H   -3.98752521694781     -3.08134960726831      0.26044922501043
