28
Coordinates from ORCA-job ./opt_b97-3c_parallel
  N   -4.89813379536778     -1.63690700386319      0.37165361432043
  C   -3.98688364912801     -0.93217012908875      0.19882762091748
  C   -2.84690474880910     -0.12298966816458      0.01033945998810
  C   -3.09595089361516      1.18798721390599     -0.46976824297760
  N   -2.34823903442627      2.25459714285650     -0.48061274976645
  C   -1.06409644086084      2.30417456461570     -0.08652672697401
  C   -0.09918937804692      1.32442025898394      0.06877535718703
  C   1.23322333810352      1.81431601923749      0.22059539033559
  C   2.31020470656643      0.98704977132665      0.15862681989985
  C   2.10718302690983     -0.44390164151950     -0.07460581401628
  C   3.37120247524161     -1.02704710787123     -0.18022832219993
  N   3.66619243097392     -2.36476898697032     -0.35205347089256
  H   4.59675249053670     -2.55259637489217     -0.68674591191132
  H   2.98300132472629     -2.89131378162468     -0.87116589002464
  C   4.34296464315181      0.00582663032757      0.01411329490707
  C   3.71411512954944      1.21594723931391      0.21466990340407
  H   4.19486884827896      2.16895671173274      0.36582354082242
  H   5.41161043082651     -0.15464083680018     -0.00119401869528
  C   0.81514616808698     -0.94995693771550     -0.08915557326832
  C   -0.30101515509418     -0.12785303269606      0.01912906012506
  C   -1.58775191933127     -0.73129965908264      0.23915180768991
  N   -1.60750329368983     -2.01934528554814      0.63763262777730
  H   -0.79017591674289     -2.42622048076530      1.05014587112420
  H   -2.48652358930885     -2.47081115932884      0.82800294627051
  H   0.67730962029439     -2.01721092448848     -0.21202692063570
  H   1.36960731933673      2.88341276017262      0.32558078861382
  H   -0.71107284734250      3.32226080412674      0.04799260534214
  H   -4.10741989451963      1.34559022241923     -0.83546631406301
