26
Coordinates from ORCA-job ./opt_b97-3c_parallel
  N   3.45428133934185      2.19874206432713      0.04961804915689
  C   2.56108573296051      1.15030061186055      0.00799816406021
  N   3.11905824573433     -0.03789800269241     -0.01588400393249
  C   2.49264988412007     -1.22269847101996     -0.02070387985036
  N   3.37291522364837     -2.28604604545380     -0.06429491866779
  H   3.04103963939688     -3.17390130389759      0.26792029241123
  H   4.31180122183869     -2.05793163028320      0.21321925526118
  C   1.13379001787534     -1.52605042758418     -0.05554676433582
  C   -0.00986243083490     -0.72052268620626     -0.03889717230744
  N   -1.16353039109649     -1.38777878960970     -0.07779060839971
  C   -2.31002360491543     -0.69949570425722     -0.04586344014875
  C   -2.36646126963710      0.79479635678458      0.03920425068979
  C   -3.73254106741248      1.16589049846547      0.05710302638051
  C   -4.46343490115023     -0.00724238768119     -0.01292139929566
  C   -3.61079248397533     -1.15306695234585     -0.07618943018797
  H   -3.92606456713745     -2.18153475835680     -0.13591375731505
  H   -5.54347465438119     -0.05783707842108     -0.01934187273472
  H   -4.12321922130314      2.16892678930807      0.11340085851110
  C   -1.19197602607292      1.47517478625563      0.07697376412225
  C   0.04335437543616      0.76871977027511      0.03168351814167
  C   1.18938281486763      1.52120163105414      0.05774201339105
  H   1.02559284910565      2.59187259251942      0.12827962471517
  H   -1.16635121637963      2.55762666410566      0.13368526119161
  H   0.88627549151337     -2.57933522846374     -0.10612769304142
  H   4.39874436191088      1.95093793300551     -0.19118736701993
  H   3.15100465604653      3.09352607951169     -0.29087448929554
