29
Coordinates from ORCA-job ./opt_b97-3c_parallel
  N   0.21822092125422      2.98919788932294     -0.08955014036896
  C   0.04318369742675      1.60989927990223     -0.10757765401815
  C   -1.26632593616970      1.08482567666086     -0.16908006560771
  C   -1.48243435422236     -0.33905543301442     -0.03210840436680
  C   -2.90087036198365     -0.49770792206425     -0.04347238487967
  N   -3.51543250980813      0.67228775430284     -0.13478340825151
  C   -2.53316255438905      1.64007426532791     -0.20286168758220
  H   -2.82011966652362      2.67900921959263     -0.26127370457983
  N   -3.57937384751046     -1.72072801413170      0.06514019487134
  H   -4.57256263575510     -1.54411919916347      0.14380960418511
  H   -3.42858844607450     -2.31387025811246     -0.74213826886001
  C   -0.44915695539412     -1.22907307276615      0.14388859611353
  N   -0.69715020146154     -2.56436737158318      0.35705546456933
  H   -0.02873243736095     -3.04250359083492      0.93691226303039
  H   -1.65286432231357     -2.75697340333109      0.62864444856105
  C   0.90486426768846     -0.73248969925890     -0.00719570064539
  C   1.87339692661219     -1.65409310786695     -0.29712757727893
  C   3.27496712783999     -1.51846442986326     -0.48376738456622
  C   4.05804329087290     -0.46670107685558     -0.11756729728339
  C   3.64242785092715      0.77807681399586      0.40914866579449
  C   2.37475876874493      1.29231833056553      0.41620782330868
  C   1.12384672887389      0.74202286762378      0.04083548192005
  H   2.30701534168181      2.31023460117604      0.78779898754084
  H   4.42697980052529      1.42847472130424      0.77398582471449
  H   5.12904307595822     -0.59886620387398     -0.22975044324031
  H   3.77793292859689     -2.39672332219559     -0.86847519520739
  H   1.51711271259290     -2.66597665459440     -0.45001072745472
  H   -0.61876232009056      3.50373490053654     -0.30248181970353
  H   0.99286344376215      3.32777370399670     -0.63502349881249
