23
Coordinates from ORCA-job ./opt_b97-3c_parallel
  N   5.40686138248889      0.81613001659296     -0.29740679755517
  C   4.26225173742564      0.66123658377973     -0.18633696041676
  C   2.85770827873452      0.50537346312237     -0.04357404237214
  C   2.12237718552454      1.69716786031457      0.23584071360907
  N   0.84650411385129      1.90814481853088      0.24553118553605
  C   -0.21089861089876      1.08058901028028      0.09219815043057
  N   -1.35103881682718      1.73636396221277     -0.03541348472221
  C   -2.49100702017153      1.03700919367539     -0.07233566724186
  C   -2.55590878659567     -0.42823377818748      0.13256535934877
  N   -3.84041535002977     -0.87089860081473      0.13554536744158
  C   -4.56386117668768      0.23983803290985     -0.07441157728010
  C   -3.80148693568585      1.43835853774628     -0.20662262195975
  H   -4.17424752041940      2.43544881813485     -0.36669290089830
  H   -5.64222678146266      0.17343289668660     -0.12695141509662
  C   -1.39150204993766     -1.12737205292761      0.24372590218687
  C   -0.16779611652452     -0.42693635441082      0.14541675682962
  C   1.00426119205122     -1.18060068279212      0.00328806289859
  C   0.87472516063362     -2.60175433902922     -0.02949174277480
  N   0.81947270476148     -3.75994357013852     -0.05788810924594
  C   2.34403638828675     -0.76475216747505     -0.14874851879009
  H   3.05475976833927     -1.55779217411981     -0.33216368395428
  H   -1.40641548575770     -2.20335535378601      0.34456881233539
  H   2.73009873340116      2.57618599929482      0.43014198359164
