25
Coordinates from ORCA-job ./opt_b97-3c_parallel
  N   -5.05741327456653     -0.35766395176681     -0.01301893639462
  C   -3.72029354811449     -0.23243409352455     -0.02965506267636
  C   -2.80634286682407     -1.31326201539957     -0.11009477790573
  C   -1.53962423338966     -0.75580171908328     -0.07435437746076
  C   -1.69024880377890      0.73518784767202      0.02075040222496
  C   -3.03544943906328      1.02065961878937      0.05354829758523
  H   -3.49350356088015      1.99428068031973      0.11731925295191
  N   -0.63990893669621      1.54967249006235      0.03083314646040
  C   0.57529076778136      0.99459203247701     -0.01817072982058
  N   1.56729412235539      1.89292897341665     -0.06409276901841
  C   2.87093685702781      1.70406118458068     -0.06623264944881
  C   3.67159008716821      0.57443986206450      0.02606137958970
  C   3.26214166191808     -0.75541286807306      0.07877934140420
  N   4.22411434273361     -1.73037538192821      0.22102013207213
  H   5.16696872561383     -1.48589234219070     -0.02467782933213
  H   3.97069581562251     -2.66816102443791     -0.03529912008566
  C   1.92972678242709     -1.18760763259252      0.03117864873818
  C   0.72707387729440     -0.50239138639361     -0.04404423212050
  N   -0.34823313092370     -1.32615277952196     -0.09563281735995
  H   1.77956825894659     -2.26165146005410      0.05020726453391
  H   4.73982086984130      0.76211234314401      0.04441564935347
  H   3.42870345147451      2.63604335140798     -0.13658243167292
  H   -3.05622851971922     -2.35979218132961     -0.17351939063076
  H   -5.64727879519249      0.45242065988455     -0.05123555841233
  H   -5.49078943315602     -1.24783227292285     -0.17306908007445
