22
Coordinates from ORCA-job ./opt_b97-3c_parallel
  N   3.09986128169880      2.34380393964495     -0.45247426736245
  C   2.41835448210485      1.23048679572298     -0.09034718017817
  N   1.15924305967903      1.47922937624784      0.29747067620597
  C   0.12381905098558      0.68276702573334      0.31123053560213
  N   -1.00515092166856      1.18541462436627      0.86373134865625
  C   -2.10159576891175      0.56250132890908      0.49828574263847
  N   -3.37241012835748      0.85262079929717      0.80725536829572
  C   -4.05384836075910     -0.00640158403350      0.01173982098379
  N   -3.38038115879631     -0.86496145521617     -0.79313787345215
  C   -2.10722206380799     -0.57295563581872     -0.50044698887565
  N   -1.01345004234691     -1.19408785442351     -0.87923238689478
  C   0.12078144468858     -0.68568264810627     -0.34642425762851
  N   1.15820858826668     -1.48098493047213     -0.33458908272170
  C   2.42178734902744     -1.22902000743237      0.02559843910925
  N   3.13529574473048     -2.34515481826263      0.31933013014573
  H   2.63475245544956     -3.21540138242603      0.35027115870586
  H   3.99970736800234     -2.28078187524637      0.82256055112139
  C   3.07663988928009      0.00217377692413     -0.03816054022434
  H   4.15979882015488     -0.00030263256902     -0.06114745735432
  H   -5.13578914475167     -0.00775272074836      0.01847865774356
  H   2.68980369813500      3.23296339042569     -0.22897383194469
  H   4.08393846139644      2.31021105758358     -0.64010010237134
