26
Coordinates from ORCA-job ./opt_b97-3c_parallel
  N   -3.46320080546073     -2.31457726855110     -0.16829867421322
  C   -2.60351905195798     -1.23289025439691     -0.07326818164998
  C   -3.13385327837453      0.03629735966771     -0.09104825918122
  C   -2.44814966606710      1.26923522173444     -0.05095758879971
  N   -1.15985175090123      1.53198846793692     -0.03392403651934
  C   -0.08917774415175      0.72616131608414     -0.04018292545131
  C   1.13821704283493      1.38089601492554     -0.05177540047144
  C   2.33580003418518      0.68246709103199     -0.02835775065841
  N   3.58200400191079      1.16220149237912     -0.03394386505139
  C   4.38180719006212      0.04360911063598      0.00841197821517
  C   3.69419040413909     -1.16000699865768      0.04200579891715
  C   2.33169234793439     -0.80029678297427      0.02001087898291
  C   1.14115768139746     -1.47218145181170      0.02962872647121
  C   -0.09608096410305     -0.77767275194528     -0.00568284175945
  C   -1.22557223516095     -1.55739322018619     -0.03441973691251
  H   -1.02755642160203     -2.62498131224436     -0.03370692483696
  H   1.11584617782386     -2.55517521525638      0.05806747186434
  H   4.11287466117478     -2.15215703393269      0.07655646839844
  H   5.45646509521352      0.16637942265599      0.01275737051466
  H   1.13585793757970      2.46060249800116     -0.07478856991189
  N   -3.24705012061952      2.40201197352317     -0.08948030626770
  H   -2.74590662445731      3.24224971888132      0.14668332514426
  H   -4.15864564851983      2.33912596246222      0.32974989688892
  H   -4.21526405162423      0.10275971556438     -0.15310719899876
  H   -4.42428344504538     -2.14609854499021      0.07313744212780
  H   -3.12345758711021     -3.18917261313731      0.19212313785839
