27
Coordinates from ORCA-job ./opt_b97-3c_parallel
  N   3.52100871837539      3.20881867298654     -0.00140866587525
  C   3.14034456699232      2.11279575129952     -0.00085264625864
  C   2.81942000319970      0.72413134348488     -0.00016551647752
  C   3.94870361701254     -0.10754509810219      0.00122248829704
  N   4.08041391691153     -1.42362068579644      0.00213567555606
  C   3.07331789181670     -2.28562215115327      0.00192987152190
  C   1.69469265802446     -2.10521842540284      0.00086777641459
  C   0.90331751754362     -0.95851791692441     -0.00038996764939
  C   1.42948285874017      0.41845118173734     -0.00096208150549
  N   0.64559130054110      1.49302509831328     -0.00224245139417
  C   -0.67435312508122      1.33267650915812     -0.00301778623945
  C   -1.32900533465234      0.00077149257379     -0.00250270308629
  C   -2.70256374667624      0.21140242566190     -0.00353013561676
  C   -3.77245143700892     -0.68460364655467     -0.00354814785372
  N   -4.74202737066036     -1.32922835483592     -0.00368051338274
  C   -2.90014486089985      1.64586205536519     -0.00467009893399
  N   -4.10389437819405      2.20860887118195     -0.00582797840949
  H   -4.93469151009378      1.64012289449515     -0.00594932411993
  H   -4.21720565801230      3.20566334896048     -0.00660327631961
  C   -1.65151983696761      2.30885220091948     -0.00434331796795
  H   -1.48773827610228      3.37295113881100     -0.00498211790723
  C   -0.51023601489398     -1.12030680733633     -0.00120953706081
  C   -1.08034546855589     -2.41593378652126     -0.00072046880182
  N   -1.53911601345087     -3.48189662468695     -0.00040992094396
  H   1.14384461067328     -3.03780132971510      0.00107864710917
  H   3.39431234390526     -3.32215560059046      0.00277746732916
  H   4.89359731061363      0.42438052557125      0.00160381587630
