29
Coordinates from ORCA-job ./opt_b97-3c_parallel
  N   -3.88468382372149     -2.30835700158282      0.12540333352676
  C   -2.98629026275452     -1.23878876764606      0.03462494325213
  C   -3.55807205065173      0.03717538436550      0.01890142828304
  C   -2.93256760315300      1.27012440166871     -0.02490858368544
  N   -3.74933478365965      2.39926296850425     -0.10854454328391
  H   -3.33470585838000      3.24803654640015      0.23798172267057
  H   -4.68205955574953      2.27811848978265      0.24901159800148
  C   -1.55075026311919      1.52045292329212     -0.05491422260281
  C   -0.43608293021820      0.69831408903312     -0.02778908568610
  C   0.81616366090115      1.35181169353478     -0.05609055464692
  C   1.99339235131433      0.65026316856951     -0.02389373545055
  C   1.96880926543661     -0.82348063258198      0.03045974068989
  C   3.29947219492738     -1.20783620941044      0.04593180910699
  C   4.03204976625780      0.01225186417412     -0.00144533462648
  N   5.37975249525036      0.13659768909960      0.03320636264090
  H   5.74616574039582      1.04096461877266     -0.20903406858769
  H   5.94519716340842     -0.65406924749409     -0.21510309906689
  N   3.26042868321463      1.12289314798074     -0.04311376472993
  H   3.70589416556624     -2.20533406404050      0.09455652532814
  C   0.74654690558333     -1.47981226848326      0.05608658361863
  C   -0.46532247852153     -0.78578991624699      0.02771989405273
  C   -1.63499828109388     -1.55713066808851      0.04245585834509
  H   -1.43751647014216     -2.62450123671242      0.07441778081513
  H   0.71710142861323     -2.56197196022122      0.09625304614767
  H   0.84496580878787      2.43277277352337     -0.09740972055346
  H   -1.30431521122434      2.57611722365085     -0.11011336066906
  H   -4.64316149784468      0.06100196199586      0.04388784727857
  H   -4.78126401642144     -2.14080714506798     -0.30063806921407
  H   -3.50878596540181     -3.19324970967173     -0.17225647475439
