25
Coordinates from ORCA-job ./opt_b97-3c_parallel
  N   4.86163436770715      2.12319958457549      0.02696874496615
  C   4.01110449228243      1.33123398832654      0.01867132953670
  C   2.96277116035401      0.37671792140855      0.00867987481737
  C   3.33944315477992     -0.96044806685066     -0.03557492758877
  N   2.62620773975059     -2.08820784123179     -0.04374300190910
  C   1.30350893653444     -2.16322090397286     -0.02378555085031
  C   0.25722119456485     -1.22965809783068     -0.00713238995751
  C   -1.03705677115368     -1.76229834950192     -0.00326679684275
  C   -2.14972077989924     -0.94863038229063      0.01486591441344
  C   -1.97416081557790      0.51233566181340      0.02998181893334
  C   -3.31045229942880      1.02736732316447      0.03985926170650
  N   -3.69395411941449      2.33238399156110      0.11038982523467
  H   -3.07374981396351      3.02294986079635     -0.27424412584938
  H   -4.66733534941415      2.49431136664076     -0.08887940469692
  N   -4.20775722447197      0.03368161222376      0.04228510185632
  C   -3.52483142553989     -1.14604339789566      0.03025299137514
  H   -4.06106961290293     -2.08206840338348      0.02595680275351
  C   -0.73395411450036      1.06320477488530      0.03813521619279
  C   0.43211050721017      0.24536836881434      0.01948655659084
  C   1.63644090479073      0.89541321658926      0.03153298790407
  H   1.58355218084692      1.97699399045636      0.05735296654960
  H   -0.59383315817104      2.13748411207541      0.06622853181064
  H   -1.15230966718182     -2.83900828640294     -0.01467528707692
  H   0.95537476100132     -3.19461360048728     -0.02442128830065
  H   4.41110438089708     -1.13398245488339     -0.06577726936835
