25
Coordinates from ORCA-job ./opt_b97-3c_parallel
  N   5.47600122436369      0.64601604906622      0.03582203179689
  C   4.31512489280835      0.61370336022358     -0.00791438423789
  C   2.90639322752278      0.49974445621511     -0.04734921427464
  C   2.18314183575786      1.67686310360576     -0.32284152652588
  N   0.91211729499716      1.95621555051901     -0.24912641040273
  C   -0.15173076678004      1.16952178788760     -0.04765940221508
  N   -1.27604761896581      1.84502787627618      0.17561787209992
  C   -2.42262509174317      1.18150255925745      0.20412308542459
  N   -3.61842564689637      1.71766059727630      0.42784324967956
  C   -4.49569511710785      0.67621890297626      0.27351748705025
  C   -3.91167819929468     -0.55069316891514     -0.04816971774155
  C   -2.54631585793729     -0.28449284818522     -0.09298546132152
  C   -1.38535626960866     -1.00768536517402     -0.25514987085541
  C   -1.43038765315274     -2.40845242142473     -0.43745197930605
  N   -1.46239549682517     -3.56056039102602     -0.58336636429883
  C   -0.12593864138612     -0.32556468618083     -0.14069587968296
  C   0.99770863821243     -1.10200391622037     -0.00766202465559
  C   2.36761300894370     -0.78818142550145      0.14412948725706
  N   3.19335234493722     -1.81733697973137      0.42910291931644
  H   4.18962155140991     -1.69030948262843      0.46640722491107
  H   2.84660768491883     -2.75672040957577      0.48097990679821
  H   0.80333577873037     -2.16910137617446      0.00356046976387
  H   -4.40938391221637     -1.49164886886001     -0.21016407989992
  H   -5.55319262532378      0.85908162864775      0.40347261166713
  H   2.80474895283581      2.52755451374655     -0.58748496344717
