22
Coordinates from ORCA-job ./opt_b97-3c_parallel
  N   3.10680262822162      2.97156670151680      0.01633468640606
  C   2.58240666177256      1.93643253275676      0.02497674260831
  C   2.09302391161601      0.60429883169379      0.01569821859431
  C   3.05297923123165     -0.37861679145190     -0.40806603975932
  N   3.05688687057580     -1.65869212905770     -0.21718910779772
  C   2.04930911709322     -2.35076097469864      0.36487844975036
  N   0.77431088826406     -2.10934551683079      0.36658901152238
  C   0.12592035939120     -0.95833311242211      0.12526603589709
  C   -1.25077394460714     -1.02998011281861     -0.10584968088296
  C   -1.89350822560732     -2.28243570174741     -0.24602369933425
  N   -2.48459822573510     -3.27159477301975     -0.37792449461727
  C   -1.99409527629916      0.15893403717629     -0.11466505716663
  C   -1.28468836264819      1.42678837145512      0.24238653528517
  N   -2.16304372231845      2.46089686778733      0.34052964116738
  C   -3.34489482055655      1.91156195166207      0.06197386771887
  C   -3.31226675432741      0.50450822585893     -0.22167360907088
  H   -4.15316520783543     -0.13006968862102     -0.44544631096437
  H   -4.23606927937312      2.52481181094709      0.06319583351896
  N   0.00653232590333      1.52168250875455      0.41827833614906
  C   0.73551015803427      0.39582684808307      0.24332808665643
  H   2.34799462386734     -3.30974560965290      0.77202670159615
  H   3.91685494483782      0.02135648112824     -0.92992698197754
