26
Coordinates from ORCA-job ./opt_b97-3c_parallel
  N   -4.91242218590446     -1.22796571517602     -0.86313057271347
  C   -4.09005689933721     -0.49122908610437     -0.49842666838422
  C   -3.12645880213365      0.42000191116045     -0.05179679761131
  C   -3.37752842283905      1.69229975124095      0.53572888980915
  N   -2.28507574390199      2.38175196268881      0.89099453807721
  C   -1.24635836409837      1.59199629747046      0.54282390098689
  N   0.01732599808108      1.92467814872573      0.66159319074467
  C   0.94163827859209      1.03816910591478      0.24228175827298
  N   2.14388783685727      1.53785233371749      0.07140186322335
  C   3.27867948508705      0.90209712774749     -0.22908069525233
  N   3.69123807539435     -0.31697938758637      0.13553270902155
  C   2.87275424014940     -1.33497227377651      0.31282708503651
  N   3.43882071139335     -2.47680708936482      0.75753000005787
  H   2.88514611387909     -3.26516597203311      1.03377214829984
  H   4.41333936116566     -2.46721331639110      0.99912518669365
  C   1.48163663933855     -1.40130764142742     -0.00852853724554
  C   0.57967864558748     -0.37667464742297     -0.08554633709843
  C   -0.80392210985515     -0.67117548324439     -0.33722049507392
  C   -1.16720591363128     -1.97379387692370     -0.74199139144309
  N   -1.39665071387680     -3.06533244900700     -1.06611104609454
  C   -1.73281878471503      0.30604658347246     -0.05310991314656
  H   1.08762822205384     -2.40176209986081     -0.14344930028567
  N   4.18961643535525      1.65322067415247     -0.87476187190602
  H   4.02072987984923      2.63891167390220     -0.96364001972428
  H   5.12541929783814      1.30480087993142     -0.97376054791755
  H   -4.36283310732924      2.10632564199394      0.69764888537499
