23
Coordinates from ORCA-job ./opt_b97-3c_parallel
  N   -3.83057354072694     -1.48951372791158     -0.48198915819024
  C   -2.87953254930094     -0.59572170108102     -0.09172104272734
  N   -3.25990043183776      0.64964768390713      0.00638809316812
  C   -2.44443521371885      1.67074560087225      0.37131152718922
  N   -1.16227080142282      1.84273368889483      0.34820450113747
  C   -0.18108108294409      0.92040004116715      0.12326183829864
  N   1.00505905077999      1.40856991405870     -0.14399820973194
  C   2.06364061043363      0.56948912463690     -0.17491326954083
  C   1.98135020935947     -0.86018672183048      0.21095681352111
  C   3.31419652856517     -1.39836946520774      0.15689529556586
  C   4.13216222248722     -0.38214818043048     -0.24926610826428
  C   3.37584869823694      0.83725586937110     -0.45524176431391
  H   3.77921527427811      1.78840890027008     -0.76209703742626
  H   5.19930930664792     -0.46222524083197     -0.39651010929535
  H   3.59807041376348     -2.41279062332902      0.38523281163488
  C   0.76651639010728     -1.38012244257080      0.47878384212920
  C   -0.39414277489456     -0.54259249647969      0.32317093933479
  C   -1.60060567091391     -1.16632608249779      0.24698078959027
  H   -1.59604757128818     -2.24429022018421      0.37564117834498
  H   0.62471734953659     -2.42732944689259      0.72105248546843
  H   -3.00770041156034      2.55137373162980      0.66763787060294
  H   -4.68764887969202     -1.09665392517273     -0.83212167014237
  H   -3.56100763929539     -2.38515384378787     -0.84526494845340
