23
Coordinates from ORCA-job ./opt_b97-3c_parallel
  N   -3.22402043648551     -2.30654794643401     -0.53122194183372
  C   -2.45139766512979     -1.24772547455669     -0.16465611531685
  N   -1.18930574051340     -1.56566385534048      0.09770489314928
  C   -0.12233867523090     -0.78518113487633      0.14750919873137
  N   0.99713315639857     -1.32693786422511      0.62796025966652
  C   2.11972455541178     -0.66145304617535      0.35211674914528
  C   3.44512537950138     -0.91193653725732      0.61028379572639
  C   4.15183571179016      0.06544761720853     -0.15311262353720
  N   3.40262901976396      0.92177417894301     -0.85840423581157
  C   2.12887331775507      0.54663340240074     -0.55960018308906
  N   1.03906606916662      1.16259610159504     -0.91663946099240
  C   -0.11059135166429      0.62389172908534     -0.40928902689335
  N   -1.11608493339168      1.44468270313476     -0.34040923589162
  C   -2.37834089535548      1.20826406276579      0.06709456460903
  N   -3.03654382729445      2.34209059380929      0.43081167876527
  H   -3.85823454888345      2.28455263386013      1.00229984771182
  H   -2.48963983227669      3.18279270928704      0.48591470239804
  C   -3.06507952469251      0.00692708327967     -0.01344899416069
  H   -4.14695245771421      0.04153510743017      0.03742361587588
  H   5.23096376886417      0.14949377396294     -0.19626970948857
  H   3.87051714088679     -1.69823017522372      1.21020496064766
  H   -4.22269581538637     -2.22054765124971     -0.55816758955243
  H   -2.84346865091972     -3.22084325512375     -0.36195628975906
