29
Coordinates from ORCA-job ./opt_b97-3c_parallel
  N   -3.64669484851454     -3.32407528189284     -0.52749755335402
  C   -3.21161081262130     -2.25552997361809     -0.36362053876735
  C   -2.76389449946577     -0.95256785372537     -0.15786710579365
  C   -3.61532076002148      0.15097990332497      0.13548090323336
  N   -4.93954936466214      0.07714307350626      0.23726914521425
  H   -5.49533730955313      0.88744261574053      0.43992146337809
  H   -5.41609374397381     -0.79866141950790      0.10252027822346
  C   -2.83313339486440      1.34090055658837      0.30118946123863
  C   -1.51999385386446      0.99348423499935      0.11480770170650
  C   -1.44664772542766     -0.45196254955059     -0.17512819357798
  C   -0.23425759808126     -1.06239149593769     -0.35777113981503
  C   0.96544286252751     -0.33147084304480     -0.24820601285957
  C   2.16480267571156     -1.03642769920422     -0.10224382612030
  C   2.10237151519087     -2.45053901281919     -0.07310422291538
  N   2.13506235475993     -3.61159979293575     -0.02506544808563
  C   3.48789010849013     -0.49842196158967      0.14158937507036
  N   3.93593502247824      0.70168507561174     -0.18117051644456
  C   3.18995369169103      1.73463058043139     -0.55714057912941
  N   1.91191354894036      1.99562507378916     -0.43724351357491
  C   0.90348598081578      1.15838161085704     -0.16998256727986
  C   -0.33686894399547      1.75683294892277      0.07602899370416
  C   -0.43282269107437      3.16221174896732      0.19747175868158
  N   -0.61825465100151      4.30126659034820      0.32215382988803
  H   3.77087076475136      2.55748966096621     -0.96148010648139
  N   4.40277776288737     -1.31846147961018      0.69365875578946
  H   4.21718858750757     -2.28774981213716      0.87750068436333
  H   5.35204312827806     -0.99237160497452      0.72644536368474
  H   -0.19337319591761     -2.13258595579659     -0.50351850939691
  H   -3.21872433549088      2.32410744849124      0.51509598251999
