22
Coordinates from ORCA-job ./opt_b97-3c_parallel
  N   4.75878285404556      0.11415923208118      0.02471609383934
  C   3.42844113700974      0.01111800905290      0.02046068756587
  N   2.66423309920957      1.10335174188096      0.24666726982164
  C   1.39892441480255      0.64784438025567      0.17004700036513
  C   1.36306993213427     -0.80939381461974     -0.12084040514547
  C   2.67675745377180     -1.19329026655498     -0.20995650767134
  H   3.07566009366226     -2.17493881409230     -0.40655390849354
  C   0.13571431785741     -1.47795010277427     -0.17100419252043
  C   -1.04546417689755     -0.78814185176295     -0.00838675616499
  N   -2.15505614956323     -1.52194342767089      0.21706048496694
  C   -3.38994776054846     -1.09380987759164      0.30128013029015
  N   -3.97563236332396      0.05572190620388     -0.07590760890750
  C   -3.30918886054402      1.15645917786928     -0.34770710194398
  N   -2.04415120851082      1.52477835900699     -0.12107079624751
  C   -1.00520595171107      0.72823886117307      0.07578612840163
  C   0.22937752090596      1.36363184745228      0.27642480573984
  H   0.23928250615368      2.43735561469526      0.39135871225251
  H   -3.91643992555375      1.95860835532068     -0.75738899409690
  H   -4.09405205578554     -1.83999014504691      0.65680877035183
  H   0.08371391967686     -2.55541374025180     -0.24105066247872
  H   5.35266644553764     -0.67711936717830     -0.13383324664535
  H   5.17733924607106      1.01087462305163      0.19806646202083
