24
Coordinates from ORCA-job ./opt_b97-3c_parallel
  N   -2.34337935885170     -2.95443545706812     -1.00883390948465
  C   -2.18008405963984     -1.88260384603903     -0.59451626620737
  C   -2.09538352141745     -0.52126344440293     -0.19245925983004
  C   -3.32226779404374      0.16064132732852     -0.35778509296069
  N   -3.69120108879575      1.35473770423356      0.04573089041770
  C   -2.85126487881908      2.26872923890838      0.52691318951850
  N   -1.56028080688642      2.41006882461719      0.34032478741520
  C   -0.63638887782515      1.50463458208260      0.02537334322390
  C   0.62683929423622      2.00392372952036     -0.30690288597007
  C   1.71502179601233      1.16023127632595     -0.27384876403689
  N   3.01843358619682      1.40634441861306     -0.45421694835528
  C   3.58577676111481      0.21836284541322     -0.12481451575526
  N   4.89490859797491      0.02345119434977     -0.17305650012515
  H   5.27514935946874     -0.87102977098194      0.07871821955081
  H   5.50372026776232      0.76620828352716     -0.46536592610228
  N   2.74688629300462     -0.80445250718762      0.27499489299258
  C   1.55817703295710     -0.24004644083008      0.17728066859364
  C   0.28009565661193     -0.78799151293761      0.40076162282124
  C   0.18605620430001     -2.12413489008000      0.85149687684373
  N   0.16312395467097     -3.19455443747319      1.29883373921174
  C   -0.83906686993145      0.02350555428153      0.15824528256098
  H   0.73813574235385      3.06957511522462     -0.43848849175904
  H   -3.32867347866593      3.09310746968788      1.04590837429957
  H   -4.10626169510977     -0.41742944806426     -0.83480674407108
