25
Coordinates from ORCA-job ./opt_b97-3c_parallel
  N   -3.37033373662790     -3.05220539139212      0.51531680440085
  C   -3.05826759120262     -1.94501599623388      0.35775622535053
  C   -2.68946503889652     -0.58739889783880      0.15813489516925
  C   -3.72441280565255      0.33017485216562      0.40561987151393
  N   -3.81710691893288      1.60594734761537      0.08381645253979
  C   -2.81566150550185      2.32055358204876     -0.42124269514011
  N   -1.51086503764969      2.16456589642875     -0.34605788379004
  C   -0.79321434899098      1.07547933239730     -0.10464943159127
  N   0.50998821791230      1.30175755568379      0.09562499652274
  C   1.33544683889631      0.27215187607939      0.04536256142486
  C   0.91522257608980     -1.11845496504984     -0.29547375591443
  C   2.04163631704778     -1.90939773300656     -0.36872941595667
  C   3.15689744389255     -1.08343832474373     -0.05898505151676
  N   4.42898759430822     -1.46331677236156     -0.00569680649112
  H   4.70376269972194     -2.40912243468769     -0.19799725147461
  H   5.15089780821525     -0.80058389510637      0.22443072850958
  C   2.72290864954330      0.26339312247131      0.20221859304723
  C   3.60052433088383      1.30174978787546      0.51168052037719
  N   4.41539253289747      2.09380392465544      0.76454268186188
  H   2.08700081020046     -2.96370221982882     -0.58866991920769
  C   -0.44663096173071     -1.36950051146356     -0.36905149191277
  C   -1.33621007499532     -0.32414822211432     -0.17293652203410
  H   -0.81410120931019     -2.38039839770902     -0.47997901772793
  H   -3.12561206624243      3.25335864998966     -0.88130136058884
  H   -4.61600421527560     -0.08513807697457      0.86338952222853
