27
Coordinates from ORCA-job ./opt_b97-3c_parallel
  N   4.51334103382550      0.80423796308742     -0.15081332112952
  C   3.21371105036831      0.39796629583106     -0.11073443200008
  C   2.06785163047904      1.21162960585310     -0.09657185364459
  C   0.97687594968163      0.31917736232524     -0.03285522329551
  C   1.60368613413880     -1.00720583770035      0.00719370585381
  C   0.83021421928617     -2.15448935365461      0.02876340555140
  C   -0.55271442350596     -2.07277861727945      0.03042589527622
  N   -1.30398675615361     -3.25008604450616      0.05304156359413
  C   -1.21614688839740     -0.80720706679695      0.03724562436924
  C   -2.60024880697709     -0.83429813639151      0.25250587421835
  N   -3.55587380867142      0.05150779450592      0.01128325777730
  C   -3.31941197530386      1.29278064394213     -0.40232087524987
  N   -2.28038309254186      2.07261574183087     -0.25016243211694
  C   -1.04990939273531      1.69741295403094      0.13985044971718
  N   -0.32573251204911      2.71321142759066      0.63392653251466
  C   -0.41776503036531      0.42059873611059     -0.01733974592767
  N   2.94107181053828     -0.93413928243387     -0.02689529037080
  H   4.70551811242853      1.71076401568182     -0.53793405316071
  H   5.16991073195905      0.08677781886308     -0.40830288136008
  H   2.06531902124940      2.27747332834384     -0.24921432343225
  H   1.32292494439846     -3.11897442603910      0.00874823622936
  H   -2.06365988031898     -3.28618049968398     -0.60595449199942
  H   -0.73734352622674     -4.07861150070110     -0.02286521878103
  H   -2.98351128701946     -1.77019163840129      0.64615273191800
  H   -4.17394017882286      1.77515029128501     -0.87010970870187
  H   0.55294294382980      2.53817755661605      1.09103274667419
  H   -0.78740434989397      3.59625636279066      0.75929812007654
