28
Coordinates from ORCA-job ./opt_b97-3c_parallel
  N   4.03555249901371     -2.32111961846134     -0.01158665663791
  C   3.05508449276134     -1.70018772873883      0.00354524720112
  C   1.85994415147067     -0.93599956721886      0.02998022513956
  C   0.64068191050883     -1.58903022126742      0.09512172552997
  C   -0.59296820748628     -0.90229973879815      0.08454385642373
  C   -1.78139404124828     -1.71000015584857      0.10150332540001
  N   -1.66280415885800     -3.01329308997449      0.47503032032568
  C   -3.03091853498442     -1.33604160276653     -0.41550236376827
  C   -3.47533265761276     -0.06680696074430     -0.69591704893618
  N   -2.98918156872165      1.09906563375856     -0.30204235606024
  C   -1.80080678481020      1.31590228366511      0.23104837364838
  N   -1.70777696709571      2.43762401231606      0.95982681752368
  C   -0.57946259096356      0.53604335021986      0.04492372795540
  C   0.64688355052476      1.20851792094578     -0.03734823621352
  C   1.00604305285433      2.57648906722760     -0.15616141639377
  C   2.39521344650350      2.65024632253982     -0.24108490600873
  C   2.95964829596120      1.36331140187509     -0.15589792654478
  C   1.90987575448063      0.46077365965511     -0.04537227096462
  H   0.65748884782899     -2.66510998842451      0.04130890806603
  H   -2.50133103553349     -3.55528800746535      0.57313339788496
  H   -0.90323013855875     -3.28842966545308      1.06895580215941
  H   -3.72958295878954     -2.13963252628664     -0.61761859113596
  H   -4.42142971437386      0.00972796115436     -1.22316678003515
  H   -0.83815459223042      2.71506207846994      1.37684066104210
  H   -2.51660884039248      3.02758963269698      1.03838504944438
  H   0.33952400371213      3.41515458545464     -0.26925777419596
  H   2.95531261772988      3.56582577585896     -0.36255695837009
  H   4.00829637810917      1.11571179751021     -0.18522340047929
