31
Coordinates from ORCA-job ./opt_b97-3c_parallel
  N   -5.31332857361268      1.07394702803963      0.26338935584605
  C   -4.29603966624196      0.51226648912592      0.19796632543764
  C   -3.05094037180084     -0.12184143377942      0.11294425080317
  C   -2.79046424387834     -1.49796239631214      0.22591965329924
  C   -1.41560102725114     -1.73334706667295      0.10585064868546
  C   -0.81349071560001     -2.96933618106439      0.35700981738659
  N   -0.28508253938867     -3.99150164572513      0.54619666995982
  C   -0.76585193433754     -0.45141252063527     -0.08501108906072
  C   -1.80942239259046      0.54102845920430     -0.04754251712745
  C   -1.51039784386500      1.89396933622057     -0.09861681853110
  C   -0.19760701767351      2.31760646738538     -0.12703264283603
  N   0.08863106988382      3.68696223421737     -0.11652566596623
  C   0.86750984273907      1.35879214829862     -0.20141155045330
  C   2.18237909613535      1.87978151346564     -0.24585575736138
  N   3.33514621881405      1.36520108436222      0.08296937561222
  C   3.59380375095637      0.06832789747911      0.32515321835091
  N   4.75176056245635     -0.14479024316553      0.98855913058327
  C   2.89689264303238     -1.01931203974074     -0.20334331616127
  C   1.57640971152446     -1.02089514328731     -0.63017156441675
  N   1.17060221769667     -2.02672830558431     -1.42069550926391
  C   0.55872996891304     -0.04408224723584     -0.24859549468085
  H   -3.52931071085160     -2.25862517253307      0.41685268312029
  H   -2.31374948828317      2.61881822458508     -0.04474723949616
  H   -0.73889942103219      4.24910533592801      0.00271235140750
  H   0.78551975520479      3.97110512461366      0.55290749774688
  H   2.25530494460307      2.92205295996285     -0.53735063273540
  H   4.96514062141891     -1.04121011514763      1.38266303381143
  H   5.27366565623666      0.65497290676698      1.29849828381528
  H   3.45911252852234     -1.93432192601256     -0.35008688772923
  H   1.72332618277233     -2.86246917755091     -1.49853379407442
  H   0.19104795209660     -2.14149867690811     -1.61036636297099
