31
Coordinates from ORCA-job ./opt_b97-3c_parallel
  N   -3.68998157122460     -2.76997447701230     -0.22867682820249
  C   -2.97325946761023     -1.85437798795714     -0.16973125843260
  C   -2.29780306678219     -0.61544820680326     -0.04557093592200
  C   -3.12536420833203      0.46049511542604      0.35833845771266
  N   -4.40715844771245      0.18098581523033      0.70451165450716
  C   -2.75401339612295      1.81778649278527      0.41085077637169
  C   -1.56327546171226      2.37385251303480      0.03516096083492
  C   -0.33143496568153      1.78883085693065     -0.28207249524075
  C   0.59451081646744      2.67264350598593     -0.85343654513908
  N   1.37615488187373      3.41293344475984     -1.30736048938121
  C   0.07036073988494      0.41228656182205     -0.10669219433885
  C   -0.88130950052008     -0.68847840963314     -0.23042168260661
  N   -0.47215282037793     -1.93840985991168     -0.50592051990533
  C   0.82120256347118     -2.25002050415784     -0.47882511606397
  C   1.77895281295370     -1.34158674399476     -0.12074676127959
  C   3.17994370697423     -1.46918046207411      0.14548828227499
  N   3.88319546859994     -2.62309369394307      0.07973487655448
  C   3.66080099276408     -0.22464439216717      0.54661388529135
  C   2.61377877556240      0.71239261576734      0.50702894804955
  N   2.74328350876607      1.98077470913624      0.94415782930494
  C   1.39787226809331      0.02983024463876      0.07997327306016
  H   -5.06499378789071      0.93242752756229      0.79157229675255
  H   -4.78416116377735     -0.73674638913100      0.53686050033222
  H   -3.53936627774296      2.51081148246225      0.68451318551312
  H   -1.56804419151825      3.45546250529762     -0.03254661531627
  H   1.05721032642338     -3.28153070627202     -0.72332282957179
  H   4.88599079894713     -2.57798179682520      0.09075810905636
  H   3.49920480847133     -3.39569106288145     -0.43299542021837
  H   4.67380188960234     -0.00287975638876      0.84541986952052
  H   2.20281890732073      2.71036656041298      0.50094739188217
  H   3.67860024082970      2.26988686690058      1.17800474099997
