28
Coordinates from ORCA-job ./opt_b97-3c_parallel
  N   4.74868276101739      2.13108192359432      0.00579723250816
  C   3.81065733138871      1.44452009036608      0.00507003369348
  C   2.72441872465881      0.53409196156234      0.00380674459381
  C   1.44833206886727      1.09873995309774      0.00214137246009
  C   0.15602253779992      0.57652988585687      0.00044549523383
  C   -0.88531476523051      1.53351288582172     -0.00100428915533
  C   -2.22254617533642      1.17956174263539     -0.00279683772992
  C   -3.21800951395801      2.19104736990750     -0.00419038058722
  N   -4.04176484793156      3.00799114844772     -0.00506277270941
  C   -2.59306641994752     -0.17363489229593     -0.00323730420980
  C   -3.81889397046454     -0.81518967960446     -0.00489984435439
  C   -3.56523709834546     -2.20871550938263     -0.00447623016111
  C   -2.19675418997720     -2.44785264511338     -0.00257976716480
  C   -1.53561269369085     -1.19595728037082     -0.00173054011607
  C   -0.18412927263015     -0.84001229631971      0.00007249553428
  C   0.77946185436779     -1.87769717029283      0.00143643719846
  C   2.14210390375731     -1.89708639490785      0.00324755502116
  C   3.07667576293204     -0.83756498248856      0.00438422181802
  N   4.38345248339628     -1.17306811495876      0.00630312266041
  H   1.47550149210410      2.18116264329793      0.00211059347449
  H   -0.62391886138407      2.58125642652883     -0.00070750758449
  H   -4.78617138991058     -0.33973399033553     -0.00625717391701
  H   -4.32676497311313     -2.97425839296808     -0.00548912769313
  H   -1.74032866405030     -3.42435245218774     -0.00190165635948
  H   0.34150805683330     -2.86668875678533      0.00093405016643
  H   2.58581326363816     -2.88622030266659      0.00395331912595
  H   4.66688969501832     -2.13417486279979      0.00587944099843
  H   5.10510690889085     -0.47348903793840      0.00651819635518
