29
Coordinates from ORCA-job ./opt_b97-3c_parallel
  N   -5.61466362686984      2.31962529623813      1.00558486448483
  C   -4.67085578728454      1.68115795359175      0.77675628354726
  C   -3.53611774027290      0.90031794988057      0.49556182615081
  C   -3.55608832407710     -0.49709030701537      0.20722684977253
  C   -2.24316227181447     -0.90108137320674      0.01082749645851
  C   -1.64708385369794     -2.10990387542741     -0.43430582887913
  N   -2.38407678949921     -3.15700098319245     -0.83161334187404
  N   -0.32428237186919     -2.28649400481792     -0.46003188500967
  C   0.49151826131272     -1.27473093616764     -0.15263368507260
  N   1.72262947159451     -1.61518823164122      0.16821967861529
  C   2.79135330945051     -0.85746767501582      0.39923220031183
  N   3.77469696796605     -1.50455316604120      1.05803638516306
  C   3.03238134929971      0.47494214878992     -0.02589956774981
  C   4.35149434460453      0.95324672786887      0.00985728694325
  N   5.44618365232494      1.35241821954880      0.03963921939784
  C   2.01072105422646      1.35918734460214     -0.46047367791747
  N   2.37365111225881      2.52250371225955     -1.04122114900924
  N   0.69681433083269      1.22627717618258     -0.30243699687012
  C   -0.01972251523752      0.14207984247058     -0.08297320578364
  C   -1.39398177124381      0.24625608846838      0.16188798462325
  C   -2.21454675007519      1.35594092971185      0.44584213105125
  H   -4.45265243257828     -1.09465333225321      0.15775333258280
  H   -1.91316394936906     -4.00123127517130     -1.10421450060036
  H   -3.38486915716059     -3.12175487922338     -0.85595601834503
  H   4.67428480517992     -1.08547372780552      1.21072101156257
  H   3.67356078612139     -2.49599755001873      1.17768643214593
  H   1.66009157342363      3.21749692151893     -1.16471471671299
  H   3.33607906958195      2.80222469090653     -1.10348662426275
  H   -1.88471235802867      2.36607476586019      0.61633749867765
