30
Coordinates from ORCA-job ./opt_b97-3c_parallel
  N   -4.75823213274602      1.80485403868152      0.18893443770988
  C   -3.72117271528974      1.27612981440879      0.12536649169618
  C   -2.48322082295976      0.63904770103845      0.05265567410492
  C   -2.28079522089635     -0.76020922283776     -0.10041387012236
  N   -3.28420600676503     -1.70166123678664     -0.19416122869864
  C   -0.90099413859345     -0.99872637951803     -0.08373377617198
  C   -0.16956249817912     -2.18235556202247     -0.03849200752189
  N   -0.78966259064944     -3.41043650406317     -0.04322453375164
  C   1.22722583329939     -2.09343320924216      0.00267797617831
  C   1.92407150061363     -0.88857180975306      0.01158608028335
  C   3.33208616287053     -0.95089115486579      0.16384198250278
  C   4.30830184223782      0.02151597487340      0.19699268834955
  N   4.28239968771469      1.34128383386579     -0.00637369439914
  C   3.15381669897432      1.99297180172020     -0.26979399731824
  C   1.82212723574922      1.61484367093541     -0.28612641604281
  C   1.18414034004856      0.37066235839453     -0.06815097024545
  C   -0.20995723061547      0.27632311050199     -0.00621435553113
  C   -1.22038000165971      1.27645918167565      0.12233874051239
  N   -1.06059844793663      2.62090430848118      0.26607912920672
  H   -4.20930459291688     -1.30736349420618     -0.27608503196222
  H   -3.13076638457096     -2.40600756042410     -0.89988133195222
  H   -0.20788957216603     -4.18715114361884      0.22349876526657
  H   -1.69442638231995     -3.43876625661443      0.40045485305133
  H   1.79846530576611     -3.01165659747937      0.06027038076747
  H   3.71505758583600     -1.95427535071287      0.31495658695479
  H   5.30827465452890     -0.35484399273325      0.39875999641109
  H   3.31734138454655      3.04256018582372     -0.50491749750211
  H   1.16510838244347      2.41870541118057     -0.58612935330848
  H   -0.20863785352930      2.93319912567442      0.70211331987070
  H   -1.87610713033562      3.12706872932261      0.57360609546225
