30
Coordinates from ORCA-job ./opt_b97-3c_parallel
  N   -4.99116337282416      1.90312772351846      0.26676355975626
  C   -4.04047153419662      1.23836845725935      0.15960574164610
  C   -2.85572080956772      0.50387803224408      0.05275676066407
  C   -2.71668224817367     -0.88851493291530     -0.14782282419445
  C   -1.36076256630080     -1.19457740754594     -0.11594063343457
  C   -0.67514521886166     -2.41719343390887     -0.20888795274590
  N   -1.33228794749796     -3.58572510524509     -0.44669027549202
  C   0.71390536597428     -2.41292045830538     -0.06012214732589
  C   1.47470091159801     -1.26157349659012      0.12385489102033
  N   2.77368206869929     -1.48620138351206      0.40373947722948
  C   3.76549460035142     -0.62278774624826      0.47712647079899
  C   3.86869782341047      0.72437031782797      0.17239863672781
  C   2.82541648660509      1.58471108723714     -0.17801484079687
  N   3.14826079845510      2.89156667068638     -0.46533262974976
  C   1.46257865967189      1.26296067778059     -0.17265778595796
  C   0.79861425090589      0.05761123068961      0.04721577453343
  C   -0.60986700592358      0.02740540427653      0.07253121623880
  C   -1.56469540176015      1.07368047583625      0.19589854605136
  N   -1.33149390222665      2.41211153905439      0.40485486710909
  H   -3.54551391519351     -1.56386135770403     -0.28693712915090
  H   -0.84557144656270     -4.44501963789490     -0.26436928602157
  H   -2.32111948510895     -3.61888874113370     -0.27804077565783
  H   1.25557311096657     -3.34854996982915     -0.03632787903759
  H   4.69793823078677     -1.08214341351255      0.80026447499828
  H   4.86335124501962      1.15044078432805      0.23595709968248
  H   2.46338413277483      3.43849039663222     -0.95684152130183
  H   4.09283738677097      3.07719650548511     -0.75234246444121
  H   0.81694685716433      2.08646160382286     -0.44830846224398
  H   -0.53814234414644      2.62175399070198      0.99159814375281
  H   -2.15074119810980      2.93077042176443      0.68599984884289
