28
Coordinates from ORCA-job ./opt_b97-3c_parallel
  N   5.01269240335253      1.81074307962207      0.68974801237742
  C   3.99075969780125      1.27720225433386      0.53128345073228
  C   2.81898943456733      0.54237362427823      0.31798360351317
  C   1.49751554064563      0.96113877335243      0.43741710113154
  C   0.63500193667659     -0.13393680658829      0.16207898213761
  C   1.47586451075449     -1.26973188631127     -0.13312852096656
  C   0.91648773610989     -2.50140343008838     -0.41297109817967
  C   -0.45075064624382     -2.66009265750589     -0.30584385940696
  C   -1.30812568577674     -1.60811542769658      0.05313758219624
  N   -2.54767256804821     -1.98324667265632      0.40723016034859
  C   -3.58744687620056     -1.22508461782323      0.67649245361652
  N   -3.90053179372460      0.02458287446863      0.38773914083795
  C   -3.03814846929703      0.94160036650407     -0.06276968983431
  N   -3.64280146228326      2.05595637844898     -0.51431953195157
  C   -1.60462091494187      0.90187043793572     -0.05219217696516
  C   -1.01239881129781      2.13898369804435     -0.36925068270937
  N   -0.63463839050488      3.20378524758152     -0.65418245414388
  C   -0.76575386509046     -0.23638164583823      0.11115730561813
  C   2.82460136091769     -0.84550208595373     -0.05260591165334
  N   3.93542245892009     -1.55590321009072     -0.28842367904724
  H   1.21217148112834      1.95219925088535      0.73875456364500
  H   1.53055139050086     -3.36002464046499     -0.65898489621409
  H   -0.90599565162661     -3.63356948384034     -0.40752513374007
  H   -4.39336778059086     -1.76035941568704      1.17239716981039
  H   -3.13056099999113      2.87242244501442     -0.79648479824252
  H   -4.63860394041464      2.11220805525114     -0.40229284938143
  H   4.83915497329853     -1.14548693473013     -0.13018051747763
  H   3.90048947475929     -2.54478542054568     -0.44838166895097
