29
Coordinates from ORCA-job ./opt_b97-3c_parallel
  N   -2.85690216125763      2.81345679856906      1.18757457292778
  C   -2.42175942727307      1.84388890187502      0.71688069615236
  C   -1.97466728112601      0.57726013116308      0.25935091967862
  C   -3.02018942138350     -0.37272020424113      0.25587204554911
  N   -3.07872055414122     -1.64663072669562     -0.02442397715709
  C   -2.00113092652419     -2.42717276685117     -0.25963637066269
  N   -2.35689665583976     -3.68602317740059     -0.64124331453340
  C   -0.64678989965575     -2.13348285206250     -0.14106625448446
  C   0.03922218544437     -0.92164143070465      0.02417479656922
  C   -0.59461518068582      0.39955596166163     -0.03617502652514
  C   0.22738900200772      1.51987717482968     -0.30441405276601
  C   -0.29871652413307      2.76539339621510     -0.72070659608161
  N   -0.62102553609040      3.79547808168004     -1.15068176398904
  C   1.63425108153487      1.43500929495450     -0.26597123809817
  C   2.23560395071358      0.24646615089864      0.02245873379865
  C   3.61302933501655     -0.12998073448075      0.15788138848787
  N   4.67823623717441      0.70044739844861      0.04197982886952
  C   3.65103317798503     -1.51971032895024      0.37707946415695
  C   2.34582958773272     -2.00826472959046      0.37879288113539
  C   1.43920940169940     -0.94728365867996      0.16509376128304
  H   -3.98525964005552      0.05087673300358      0.51769719492752
  H   -3.32006285202758     -3.93652840141244     -0.50595327565613
  H   -1.68242557022781     -4.42793734104281     -0.64682611721713
  H   0.00223339385670     -2.99038805182812     -0.26926558813065
  H   2.19868919790252      2.33534186452654     -0.47175459656775
  H   4.53654925071516      1.68873627388737      0.14945821977250
  H   5.57562233847172      0.37087215465463      0.34948079494825
  H   4.54447115408484     -2.10349998701695      0.53465053857043
  H   2.08857700409700     -3.04058609828915      0.55886632329055
