27
Coordinates from ORCA-job ./opt_b97-3c_parallel
  N   -2.82776820651151     -2.81686277565127     -0.45066621996148
  C   -2.44111897587619     -1.72365364232860     -0.30859708427988
  C   -2.02258535655780     -0.41363253587011     -0.10905799411261
  C   -2.90185615799342      0.70768322315618     -0.08602013139075
  N   -4.24262098930947      0.65572279560512     -0.11420792404655
  N   -2.26199044407196      1.89832492174430     -0.00771935488748
  C   -0.95784531308627      1.60301207411865     -0.01942328296961
  N   0.01200112211675      2.51374355452674      0.01845026546971
  C   1.26505260377708      2.08887292483524      0.01472420374862
  N   2.21796096952968      3.08027893400841     -0.02209960377473
  C   1.65059948176547      0.70052246848942      0.04347067051022
  C   3.00706114826647      0.39688444735482      0.16723330941923
  N   3.68163385029666     -0.69727754483960     -0.16373046725593
  C   3.11455803763927     -1.84683404621909     -0.49813702345295
  N   1.95519342675300     -2.35822822991245     -0.15355192000462
  C   0.90997439020476     -1.67864171187628      0.31167913034107
  N   0.06575795982884     -2.37262422563151      1.06650874880278
  C   0.58720796018043     -0.28988912840588      0.01457075680370
  C   -0.71462453452029      0.15636959943622     -0.06874970831903
  H   -4.70348349619931     -0.20321367579068     -0.35534008299083
  H   -4.73791225303711      1.51504929460717     -0.27126429738898
  H   3.04519385692112      2.92107855229456     -0.56790242426822
  H   1.81082155702805      3.99006873497464     -0.16765693884823
  H   3.64558438682213      1.19729768163239      0.52703945183762
  H   3.75541671426024     -2.52073852160100     -1.05921671987496
  H   -0.80258110749547     -1.97697538115813      1.38047684884747
  H   0.18416812036881     -3.36896692209930      1.13614419614632
