26
Coordinates from ORCA-job ./opt_b97-3c_parallel
  N   -4.26453695619234     -0.77532836738666      0.37113699564715
  C   -3.06663154601488     -0.23710642989408      0.05106043936354
  N   -3.14547237770103      1.09098618242018     -0.20093634134814
  C   -2.08246934175195      1.86001745723458     -0.32775659620755
  N   -0.77921152453444      1.66964368498020     -0.21352753504758
  C   -0.14837199129072      0.47556689232396     -0.07877895937569
  C   -0.77002196034491     -0.88481507467460     -0.09606173526167
  N   -2.07916679881336     -1.12507438794702      0.01294178138135
  N   -0.01432494458204     -1.98033213968878     -0.15681909186309
  C   1.32900417361543     -1.91927108660456     -0.11789968660766
  N   1.95691045549383     -3.11617175569678     -0.27268906651279
  C   2.01104457955595     -0.71298709619299      0.03891344202049
  C   3.36357770598402     -0.32398879565114      0.08084524665516
  C   3.44987312863982      1.06996141967728      0.11666191646152
  C   2.14331852702199      1.59416093197296      0.08512579408117
  N   1.73551917444581      2.86998270572817      0.09861242783825
  C   1.22339244628015      0.48066027702411      0.04770280824016
  H   -5.08647169668432     -0.20710976129156      0.28905958797067
  H   -4.34025366878051     -1.77302752182380      0.43856490018627
  H   -2.33650151367813      2.89543021227882     -0.54657539624519
  H   2.91072174877415     -3.20715585411637      0.02498845518428
  H   1.37164377647942     -3.92531604989259     -0.15555970527039
  H   4.21797171311034     -0.98507863318670      0.06468768366587
  H   4.35911180992453      1.64846318331403      0.15864572148977
  H   0.74259204952591      3.00851528287032     -0.07062986735074
  H   2.38725547451719      3.62132890112316     -0.03657474599543
