32
Coordinates from ORCA-job ./opt_b97-3c_parallel
  N   0.13517205984395      4.20592957805507     -0.27903453206413
  C   -0.07751562446160      3.06257113687481     -0.22368247835729
  C   -0.48526534876263      1.71595525041295     -0.17684611571094
  C   -1.88081964484876      1.44047381664213     -0.24906609073528
  N   -2.74766568544990      2.45475276698490     -0.49235131977477
  C   -2.29767597630595      0.12425168026389     -0.07533331342931
  C   -3.57942194112709     -0.45344503460613     -0.01445771150182
  C   -3.43962950538215     -1.81815428949911      0.22925462552700
  C   -2.06859054161056     -2.12600007944742      0.31049152346568
  N   -1.55171016042353     -3.38771594638899      0.54275890518117
  C   -1.32680819793470     -0.92604473069079      0.10363739427727
  C   0.05873043753264     -0.69893326280489      0.00155030612440
  C   0.93749097092661     -1.75221454357047     -0.23479864148196
  C   2.33887208394505     -1.79247449911452     -0.31362331463876
  N   2.88403770152402     -3.02559353039133     -0.62748362681816
  C   3.22432426267971     -0.76413168142778     -0.02571055308417
  C   2.88242603495075      0.54396784194242      0.33724692573617
  N   3.88132096078577      1.34880162999349      0.82445418737665
  N   1.71623228113450      1.16911506654556      0.25730131395207
  C   0.49110443173587      0.71450585109279      0.02469558125650
  H   -3.72107024859638      2.30801978863128     -0.30187150809196
  H   -2.41909525575922      3.40104078313347     -0.39765178907917
  H   -4.52370988846897      0.05844546822429     -0.12533617649547
  H   -4.24448302837752     -2.52647039414480      0.35616253886108
  H   -0.68113783173602     -3.39341748828498      1.05439355240642
  H   -2.21535966541074     -4.02230671291292      0.95912251365370
  H   0.45961915000717     -2.69237794565589     -0.47505480358600
  H   2.28381302392292     -3.65875130111912     -1.12712016281124
  H   3.82170928804490     -3.01655645737443     -0.98953561526516
  H   4.28053772388869     -1.00891281648391     -0.03596076640467
  H   3.68265325397040      2.33414315203671      0.79161511432362
  H   4.83748852136763      1.08612448824273      0.66879521571068
