28
Coordinates from ORCA-job ./opt_b97-3c_parallel
  N   -2.67079993810547      3.79501759034697      0.48200599558563
  C   -1.97771502472711      2.87169845148586      0.35393540429554
  C   -1.15025880550790      1.73602859157618      0.19142998724161
  C   0.23181756905939      1.88228041097362      0.11350901050293
  C   1.10215158085187      0.79350218966016      0.00027735394837
  C   2.49728148985059      1.07983977349412     -0.22076546091368
  N   2.81622951206021      2.24397274147836     -0.82432060400490
  N   3.54849296288090      0.38252583115751      0.19152798967209
  C   3.52664078862705     -0.87118512853008      0.60018128984066
  N   2.67676438934003     -1.85472976510296      0.40661786612900
  C   1.41462430354054     -1.73614196956822     -0.03315498136081
  N   0.85167442163110     -2.88140696555283     -0.40841934222022
  C   0.57510927171542     -0.54834219901674     -0.02093066343064
  C   -0.81676295486951     -0.68942939697113     -0.04764244653025
  N   -1.54664598486510     -1.83053872939469     -0.15662136976845
  C   -2.84636547603628     -1.44733773007662     -0.08044225138040
  N   -3.83696763195185     -2.37260417800161     -0.21240268177239
  C   -2.99984355457863     -0.05433699013786      0.07042832438733
  C   -1.70885695308284      0.45271160867482      0.08684304638281
  H   0.64178018553725      2.87693942971546      0.19926959726888
  H   3.79280528630216      2.44572858162291     -0.94819856716793
  H   2.14692579885154      2.74144040150296     -1.37993602338295
  H   4.43074921420730     -1.17361515146702      1.12179154919238
  H   -0.17383131092445     -2.90888742047226     -0.49461147941048
  H   1.38761441914926     -3.71740247397452     -0.24509442475870
  H   -3.56737303287735     -3.32565031226755     -0.03905809074727
  H   -4.74296000358298     -2.12449772282736      0.14267904757648
  H   -3.92232409749552      0.49714821617069      0.14129400233045
