29
Coordinates from ORCA-job ./opt_b97-3c_parallel
  N   -2.26801363202412      3.78063376348589     -0.22031109309703
  C   -2.07150811897181      2.63700873418518     -0.15612877606379
  C   -1.94750574521525      1.22483963000318     -0.08614793792989
  C   -3.16725685007274      0.52256936366480     -0.16133820885122
  C   -3.42554180318947     -0.80948996971928     -0.08100018306810
  C   -2.46830757289602     -1.84732646436071      0.11562099988414
  N   -2.98237393537779     -3.09818696956503      0.32690713986233
  N   -1.15944104708216     -1.79019620106726      0.13812577955536
  C   -0.31848405929047     -0.74015058273182      0.05881685402505
  C   -0.63588865965709      0.71097843454852      0.04253039160577
  N   0.31813057481984      1.64534954969264      0.12805460746655
  C   1.61299695793368      1.32282506496324      0.13123886806324
  N   2.48604944086415      2.36812604552791      0.27110073678856
  C   2.03694291066030      0.00599009930678     -0.03248577257409
  C   3.29625601114772     -0.61127979409660     -0.13278708588938
  N   4.51384529101192      0.02755611733702     -0.19297270708993
  C   3.08787921343116     -2.02191362028418     -0.12666932231893
  C   1.73318954887728     -2.27349914251180     -0.04833841912944
  C   1.04174108078832     -1.02964594615102     -0.00481835584468
  H   -4.03368625773154      1.15785851386297     -0.29459410812577
  H   -4.46442960872076     -1.10916493998149     -0.13692348367481
  H   -3.92854545443963     -3.29710600392398      0.05879600820735
  H   -2.32629772283631     -3.85679563697878      0.26486163937570
  H   2.03611752036173      3.23011374826870      0.53768383877307
  H   3.34217020139460      2.17596509030199      0.76505861532543
  H   5.28677288022488     -0.55761760419732     -0.46480077363609
  H   4.51470177050228      0.89932100640791     -0.70007114138885
  H   3.87187329401417     -2.76129699938429     -0.19608114916996
  H   1.26050968267416     -3.24099567840219     -0.04230624238027
