34
Coordinates from ORCA-job ./opt_b97-3c_parallel
  N   3.36776796200105     -3.22720512294131      0.86964411920369
  C   2.79114245169586     -2.26267826158908      0.55707826958003
  C   2.16129985174460     -1.06329454190716      0.17329315475400
  C   3.03388844830495     -0.10281776908578     -0.40115443641666
  N   4.29496258903299     -0.51988734114617     -0.74028308886734
  C   2.74414619768426      1.23091379000813     -0.68911916423666
  C   1.68489812769169      1.98212080155355     -0.20251835342102
  N   1.81082328161994      3.34669384850890     -0.28952228294385
  C   0.47235029860398      1.47155004840283      0.33336723515618
  C   -0.27719093778952      2.37457107588535      1.08230784932293
  N   -0.89968607188136      3.18292681162375      1.65944285620016
  C   -0.08692162016603      0.15119302464023      0.11208756440315
  C   0.72344341962405     -1.05000622114420      0.19752123930186
  C   0.07096138366464     -2.28354900220139      0.35123128609131
  C   -1.30374553414761     -2.41799799196077      0.29679038836772
  C   -2.07600189188456     -1.30378213560199      0.06956890603596
  C   -3.47866159482834     -1.16816969767164     -0.20157737008779
  N   -4.36388212863008     -2.18903775150037     -0.20307571332413
  C   -3.74412031733299      0.16190107966511     -0.52237319227294
  C   -2.55279573939191      0.89516096699400     -0.42050662378103
  N   -2.46031054230044      2.19517574504927     -0.74959274440378
  C   -1.46604806918208     -0.01839941373374     -0.04419805064107
  H   4.60271786396800     -1.42069574216801     -0.41492497066447
  H   5.01539673324219      0.17706962806454     -0.79093923529577
  H   3.51720559141162      1.78163072561425     -1.21184614778240
  H   2.74388808477524      3.71840696508553     -0.27334149655746
  H   1.13949345784171      3.90757129442718      0.20741014413729
  H   0.67087862460084     -3.17044749480944      0.48592206015224
  H   -1.73806553059140     -3.40697956726945      0.38205835014452
  H   -5.34537203415724     -1.97985879238774     -0.22834550694649
  H   -4.12153049089250     -3.03945326584665      0.27190702156303
  H   -4.70591788277176      0.57539973756937     -0.78292368819179
  H   -1.81047985301812      2.78639562593682     -0.25252462674020
  H   -3.32520331984177      2.65521417953602     -0.98044188623932
