27
Coordinates from ORCA-job ./opt_b97-3c_parallel
  N   -2.04058481305315      3.68539002478208      0.11604770922835
  C   -2.16719853156932      2.52723436302009      0.07546027954210
  C   -2.32926009335397      1.14056384343343      0.02478037383102
  C   -3.58894270879340      0.49801811281502     -0.07552962974797
  C   -3.42302588067452     -0.87893695647426     -0.13142269442075
  C   -2.04619811343166     -1.14521376810591     -0.06864289052310
  C   -1.33999728275527     -2.33037804971861     -0.13039319206942
  C   0.04814172716493     -2.34950992094452     -0.04897881698302
  N   0.72360944882680     -3.57083378303531     -0.06434277119934
  C   0.77533160612261     -1.13894221396886      0.10178197100309
  C   2.13818896154466     -1.25256187327886      0.45100824285111
  N   3.14600432225429     -0.41397704170610      0.40833958115491
  C   3.02845649230040      0.86620370261038      0.00747489475745
  N   4.14719916020679      1.40632324139546     -0.49989513219198
  N   2.00072280595359      1.71537119679683      0.14204833471043
  C   0.73916023223421      1.37501926405398      0.24481636421599
  C   0.07131672863507      0.13407055657034      0.09329058065279
  C   -1.33041020356433      0.12729137590591      0.03588849179370
  H   -4.52837150504172      1.02761882331684     -0.10480872420147
  H   -4.20723632153812     -1.61400246281841     -0.21254436477313
  H   -1.87470737843852     -3.26604772244224     -0.25194061396758
  H   1.51639092482348     -3.61489065721669     -0.68335034808384
  H   0.11829321171283     -4.36061530201551     -0.21635189076242
  H   2.42505758739194     -2.23391805060935      0.81805818382619
  H   4.17582080462994      2.39574271047017     -0.66714365758963
  H   4.99873398398420      0.87576248730500     -0.48070979721947
  H   0.09505363732829      2.22319545865951      0.43582497826637
