28
Coordinates from ORCA-job ./opt_b97-3c_parallel
  N   -2.88120642245830     -2.76104374636296      0.32591826135676
  C   -2.50452348958287     -1.66300118373668      0.19079979013854
  C   -2.10413229451371     -0.34377715614172      0.01261162440167
  C   -3.01467409067685      0.76203542070793      0.07541886535853
  N   -4.36151781418377      0.65934123321185      0.10967066127296
  N   -2.40608268791918      1.95498440024539      0.07105841889455
  C   -1.08552708221841      1.68577529305412      0.03601991473917
  N   -0.13531102376367      2.61410362203850      0.09825641662535
  C   1.11640335834167      2.18205634331363      0.08440087131504
  C   1.52492171152037      0.84013692342096     -0.01936772971799
  C   2.93983931219374      0.57874422473745     -0.00325265332472
  N   3.76994362368926      1.52436415311941     -0.48216483469164
  N   3.56755490818562     -0.45567785248725      0.54730846769140
  C   3.07321467729945     -1.66909318430015      0.70053971082663
  C   1.93337950323154     -2.24007061438528      0.16894578618474
  C   0.83170854944834     -1.57282877343338     -0.37665182470336
  N   -0.03594971587579     -2.27721857225166     -1.11100890177181
  C   0.51567403781451     -0.17869165210004     -0.11973245837331
  C   -0.81080151273274      0.25251331679785     -0.03359506964062
  H   -4.76677979173056     -0.22171407847814      0.37289484347117
  H   -4.86088285234924      1.48365703601325      0.39449761808981
  H   1.86924218743641      2.94569630871584      0.24124319175823
  H   3.43981602509721      2.28412920360465     -1.04485536649903
  H   4.75882189046905      1.38480898193532     -0.37380668874159
  H   3.73303597434821     -2.34005540873191      1.24305073788518
  H   1.89244497093924     -3.32278485585056      0.17807491901947
  H   0.00635422570186     -3.28091201610734     -1.13206305082554
  H   -0.90623524321162     -1.87039961474894     -1.40374341543951
