31
Coordinates from ORCA-job ./opt_b97-3c_parallel
  N   -5.10201006509105      0.50078716312111     -1.14317947888527
  C   -4.02714390163688      0.29433548179489     -0.74978750000176
  C   -2.73979684686732     -0.03377801521715     -0.26189635943963
  C   -1.87157128980017      1.02281182238057     -0.04499451657889
  C   -0.50887870949913      1.09206743580242      0.24603304163958
  C   0.04867340935883      2.42096654174958      0.32320978762376
  N   -0.81065570186841      3.49923279516508      0.49642848774678
  C   1.40029123192725      2.62543001447670      0.13551854821442
  C   2.23058965471523      1.54549565012403     -0.13164373963980
  N   3.55270041716105      1.58435024859451     -0.40457358160773
  C   3.92733113699912      0.30053493172163     -0.53758557287345
  C   2.88571130707649     -0.62183718226987     -0.32133638616923
  C   2.96930800316089     -1.99790316917664     -0.54024441615443
  N   3.02258795709707     -3.15290213625807     -0.69242842770790
  C   1.72614468009930      0.18431027418486     -0.04653441882108
  C   0.38629095323093     -0.04358764207206      0.25165814404819
  C   -0.06613626075060     -1.34874568790166      0.70063666562630
  N   0.84008203100235     -2.07654351942761      1.38271591069630
  C   -1.31701441193517     -1.93055073736871      0.52531295198598
  C   -2.49794960402155     -1.41769515531273      0.00343389666220
  N   -3.52936973651263     -2.27491168316131     -0.17917645944050
  H   -2.31758585769117      1.98872463927133     -0.24309237811718
  H   -0.34727189875925      4.39230494008937      0.51073726186141
  H   -1.45980680246014      3.41818192076030      1.26183959306742
  H   1.82469857867181      3.62015907283412      0.18159300216720
  H   4.93903260578242      0.04223175675941     -0.81400763276367
  H   0.72755880089305     -3.07061741733153      1.47372645021049
  H   1.78602772461686     -1.74806350886764      1.44875053928011
  H   -1.38112942547011     -2.96204671896508      0.85403839340056
  H   -4.38932623028176     -1.96110914556715     -0.59356077013997
  H   -3.37569077894641     -3.26467613103197     -0.14231241409112
