30
Coordinates from ORCA-job ./opt_b97-3c_parallel
  N   3.14370371732724      3.36853695951519      0.04372029901124
  C   2.30359327123445      2.56837787541144      0.02235324265365
  C   1.24773217097348      1.62425478947054     -0.00414178062999
  C   -0.06471676623211      2.07180503065556     -0.05517257268931
  C   -1.17541730865538      1.21322585674394     -0.07511957363024
  C   -2.42260238045407      1.88480618208034     -0.11889099515976
  C   -3.70103331467377      1.43214729377544     -0.07335298526303
  C   -4.11067909776826      0.08187258340415      0.07196253097707
  N   -5.44131420016617     -0.13352185495363      0.22516320342957
  N   -3.38868825790232     -1.02002345454344      0.04344390113184
  C   -2.06954409402537     -1.18474727058238     -0.09211846412364
  N   -1.72732283436985     -2.46289316422585     -0.24432563100062
  C   -0.97500645362582     -0.21392688430655     -0.05322350958834
  C   0.35347786527500     -0.66748520285732     -0.03036655243273
  N   0.80391702754478     -1.95963876312539     -0.03256251075870
  C   2.14445989932493     -1.90030252349454      0.01268765865720
  N   2.91363755411990     -3.00742219007950     -0.01914729352624
  C   2.62844691563165     -0.55766616422822      0.04207499157738
  C   3.98155316643635     -0.22283134720055      0.10713812485125
  N   5.13192212735239     -0.05377949798373      0.16897545629427
  C   1.47864610312168      0.24411336600902      0.01222183994349
  H   -0.23860887406275      3.13717863591610     -0.07699592853101
  H   -2.33121495162467      2.96186503222678     -0.18982447779262
  H   -4.48829561377428      2.17429107575326     -0.11414999847706
  H   -6.06340911380126      0.61965583830020      0.44988183827980
  H   -5.73883420810352     -1.07030549445234      0.43101610429869
  H   -0.73091614408027     -2.72213571600815     -0.23149878755048
  H   -2.46936512917707     -3.13936075146985     -0.19949091089037
  H   3.88507120849461     -2.91741238825447      0.22180518439365
  H   2.47671790786037     -3.88599672659603      0.19288678124491
