32
Coordinates from ORCA-job ./opt_b97-3c_parallel
  N   -4.94751083103677      2.57430622314655      0.46833524644777
  C   -4.14517467628637      1.74729079000030      0.30443869120621
  C   -3.23304716059563      0.68744408487527      0.10202714185405
  C   -1.88090774418096      1.00249082298181      0.11129272731000
  C   -0.73097427541531      0.22417949910364      0.01622450312917
  C   -0.74657450445898     -1.23783721679980     -0.06119140385929
  C   -1.87925616367173     -1.98195253405065     -0.40261008796707
  N   -3.17890295501590     -1.74123472076261     -0.44713861308058
  C   -3.80414287542255     -0.61134786603322     -0.11800652141785
  N   -5.13654707984452     -0.73531381503041     -0.02845568999975
  C   0.47337464057959     -1.95830266887124      0.06885334635979
  N   0.47227665205962     -3.33045446489892      0.12452724838105
  C   1.71139154456167     -1.27435624997694      0.10372865738584
  C   2.88619245917195     -2.04438901961572      0.25191850256098
  N   3.79091457004566     -2.76135317009532      0.38454363487633
  C   1.75887124408066      0.11666855146422      0.01756797899179
  C   2.82349332172836      1.01814792047849      0.01345140182398
  C   4.20084166050113      0.79720928266002      0.01509675820788
  N   5.36403096093641      0.73415401103820      0.00650012875410
  C   2.25167096147550      2.34039286049729     -0.02034967825266
  N   2.99247822361595      3.45963959007795     -0.02505964443484
  C   0.85286499241578      2.24458295356332     -0.02970264071777
  C   0.51109582345405      0.88902312696185     -0.00494248501141
  H   -1.69353128717977      2.05966239963544      0.23748647789281
  H   -1.66042685871906     -2.99506569010971     -0.72453339227362
  H   -5.53767160945405     -1.62970005653370     -0.24772627370902
  H   -5.73821574178965      0.04391993600722      0.17296211801975
  H   -0.25541949941925     -3.76971183996795      0.65829406618396
  H   1.36967737477644     -3.76855092194479      0.25573125317544
  H   2.56897711721914      4.35906880119266     -0.15172089375613
  H   3.99167511085838      3.40024547909204     -0.11534037256515
  H   0.18472765061148      3.08847666571389     -0.07870623121862
