30
Coordinates from ORCA-job ./opt_b97-3c_parallel
  N   -5.97006397495639     -0.44790176553219     -0.35662188622598
  C   -4.88774288135386     -0.02958452319720     -0.26096024916075
  C   -3.55820698603438      0.38741626910773     -0.14909078111586
  C   -3.05131378184483      1.68362654357661     -0.01346293467797
  C   -1.64283844065697      1.62070307851845      0.05776380914674
  C   -0.66527568303596      2.58595244858542      0.21837263798032
  C   0.66319597284957      2.20013078814817      0.24688936069361
  C   1.09779496813004      0.86710429441863      0.12160950217244
  C   2.49442855966462      0.61793189914302      0.03014551470843
  C   3.35772421543654      1.73080280076832      0.06047998045816
  N   4.12570871960255      2.60683452228807      0.07633868273324
  C   3.15439736359416     -0.63372058768673     -0.18746610857990
  N   4.46793018785296     -0.60017464811062     -0.50088433868268
  N   2.67304441834682     -1.86548157581130     -0.09342663439993
  C   1.40177222710136     -2.19974492214258      0.10902632854273
  N   1.23546363712442     -3.53713437460974      0.32184193086677
  N   0.25471290566572     -1.52330910325382      0.06569355958505
  C   0.07759540895100     -0.18868575491897      0.03902960874525
  C   -1.24647553984766      0.25229978805598     -0.03260553640744
  C   -2.44499438112943     -0.51978208272967     -0.15421905336323
  N   -2.49433535554540     -1.83926028000113     -0.25939016115652
  H   -3.65031380999466      2.57881057825292      0.03266610578699
  H   -0.92082949299067      3.63341228869872      0.30863915550361
  H   1.41529246882628      2.96933605574496      0.34034188134445
  H   4.95635785115209     -1.47579855730668     -0.52856990941745
  H   4.99332524295387      0.25513430474612     -0.50992028625192
  H   0.37489986222620     -3.83845286622946      0.73969787066574
  H   2.06256836148842     -4.06750844794610      0.52668653627102
  H   -1.59865891277279     -2.31621432709325     -0.23462695946071
  H   -3.36738683360366     -2.32807395538368     -0.36220729730420
