25
Coordinates from ORCA-job ./opt_b97-3c_parallel
  N   -5.21940620451259     -1.21241281018309      0.00115062292938
  C   -4.14724536588039     -0.76395712678220      0.00102758986213
  C   -2.85024544023233     -0.21952663340778      0.00041048173693
  C   -2.54205376184292      1.16417832855553     -0.00040170079626
  C   -1.15624236924874      1.27683539606903     -0.00089111128365
  C   -0.31078061769383      2.38110977430769     -0.00174003949828
  C   1.05309166034462      2.20478510940494     -0.00208089536307
  C   1.66534621867366      0.93131375037479     -0.00160246930333
  C   3.06598089853760      0.92705654365825     -0.00205612780107
  C   4.00362443868121     -0.09387529949147     -0.00181572953758
  C   3.79491404308163     -1.45986422031152     -0.00100659528415
  C   2.56934983299572     -2.11634582894228     -0.00024765462793
  C   1.29643480471437     -1.58713657181587     -0.00012645049687
  C   0.81210236670088     -0.26602462739807     -0.00068958155841
  C   -0.58244341884485     -0.06504243389331     -0.00036067894232
  C   -1.66151893497600     -0.96798295061150      0.00045168531057
  H   -3.26038028237371      1.96697664251979     -0.00060878117103
  H   -0.72288876959469      3.38263013262144     -0.00213946888418
  H   1.69728238817682      3.07312602140208     -0.00274661839765
  H   3.49957663162432      1.92067596054031     -0.00272923686117
  H   5.03716608554072      0.23024615343692     -0.00233034982615
  H   4.67812821239736     -2.08640154206046     -0.00095590593609
  H   2.61602662036722     -3.19858737853926      0.00032750818062
  H   0.51499722859400     -2.33527052780316      0.00053271484507
  H   -1.62822445933009     -2.04443038915075      0.00100437860452
