27
Coordinates from ORCA-job ./opt_b97-3c_parallel
  N   -4.85372783255280      0.84413626636528     -0.43551869277181
  C   -3.73644257303069      0.55799890013271     -0.26474575251558
  C   -2.39529131712996      0.19618726016776     -0.05953931368862
  C   -2.10144086018942     -1.17823821793649     -0.05038636641742
  N   -3.12482139092281     -2.05370224989211     -0.20706917080781
  C   -0.83329512173176     -1.76383395652297      0.14857965331252
  C   0.43239816342015     -1.22604815218579      0.22127337739210
  N   1.41567988969211     -2.16737460656960      0.34250384177554
  C   2.67839487843599     -1.79792213816090      0.23588311014698
  C   3.07661836187915     -0.48760086960104     -0.00961987552792
  C   4.32848217936949      0.12584152726329     -0.14918836573719
  C   4.11616051525480      1.51513967033498     -0.29354306776614
  C   2.75351863031182      1.77869032861905     -0.23384774398426
  C   2.07453228873321      0.54118363469481     -0.06564610800544
  C   0.72908817070254      0.22787218782927      0.10684323998066
  N   -0.14576477448699      1.23399117752470      0.19561880437446
  C   -1.45859572591775      1.25314501270441      0.20795825207858
  N   -1.98754490840277      2.47397484332144      0.47973230348122
  H   -4.05096167801796     -1.73306660340906     -0.42765079295543
  H   -2.93122076967511     -3.02623011981536     -0.35087663894234
  H   -0.82810273619291     -2.84521593295140      0.20906939999578
  H   3.41414672693761     -2.58923181955043      0.34784245086589
  H   5.28565942664540     -0.37289451850559     -0.13644948404809
  H   4.89251270437595      2.25311978258763     -0.42437134831929
  H   2.28102356404101      2.74442195055862     -0.30532117846735
  H   -1.35115643013193      3.24997957322518      0.46855578729748
  H   -2.96862134981641      2.65929536337160      0.37648147205349
