30
Coordinates from ORCA-job ./opt_b97-3c_parallel
  N   0.85020130525630      3.99982777536480     -0.00279338318699
  C   0.85335500781566      2.83427207006428     -0.02093618911997
  C   0.93802811464325      1.43262043130144     -0.03343412805355
  C   2.23802737087190      0.87078411450175     -0.02597463131260
  N   3.32056935474616      1.67504954347616     -0.06272363790147
  C   2.36424442736195     -0.52490257039401     -0.01890420046431
  C   3.49170424536021     -1.35510088556977     -0.01632933207501
  C   3.04214672227906     -2.68787215060725      0.00506975869128
  C   1.65057613237158     -2.69822717271780      0.01642777264664
  C   1.19202893096693     -1.35802563919048      0.00080735032170
  C   -0.11614153707473     -0.82828838952992      0.00648018069841
  C   -1.19711058388588     -1.69856780469942      0.04281832402730
  C   -2.58333038855721     -1.48988625235925      0.04105884479798
  N   -3.36707213898968     -2.61543404982345      0.12481250311926
  N   -3.29788677122774     -0.36764460139647      0.01301657138440
  C   -2.79389481171736      0.85689297161169     -0.02801519719071
  N   -3.75056505462004      1.83399315331369     -0.09635427719435
  C   -1.45879243420832      1.30983989455170     -0.05297180614037
  C   -0.24949823903057      0.64088553416807     -0.02678657011638
  H   4.22817232815667      1.28662433481819      0.10776841807079
  H   3.21738528869630      2.66741325026090      0.05984340747829
  H   4.52688410029594     -1.04817009126113     -0.04088919023412
  H   3.67643955496883     -3.56087925359140      0.00825699461606
  H   1.04176707385004     -3.58846158823554      0.02867054376933
  H   -0.91997474293491     -2.74301081504190      0.09184511462406
  H   -2.97624734793275     -3.49527917357978     -0.15870510303436
  H   -4.33595513273367     -2.47587753751905     -0.10246391967572
  H   -3.50717580551094      2.77821360969149      0.14022679691174
  H   -4.68694076788767      1.54413850713522      0.12313817326391
  H   -1.37550245832932      2.38811799265716     -0.10362811192125
