29
Coordinates from ORCA-job ./opt_b97-3c_parallel
  N   -2.92179335238284      2.74592202162167     -0.33887052396669
  C   -2.36989203779741      1.48531323840257     -0.16455844577040
  C   -3.26702657615856      0.41907468581939     -0.10408400669634
  C   -2.95021289357788     -0.93306548402074      0.01851246049470
  N   -4.01313450647719     -1.81293346561071      0.12077288035977
  N   -1.77874205317902     -1.56004907549552     -0.01348176656311
  C   -0.53304391758602     -1.08142243414474     -0.07835616202293
  C   0.45889945348000     -2.07948431274080     -0.17550031424007
  C   1.81112608274970     -1.80395603784612     -0.15599593530874
  C   2.24773789708721     -0.49794583019431     -0.02968871036607
  C   3.54292114014288      0.07695725737449      0.04227316361182
  N   4.73614734744904     -0.60190062872267      0.05059278306219
  C   3.38657172407496      1.47485170833313      0.19200825309429
  C   2.03001456028908      1.77098828495854      0.20020586525926
  C   1.28528990037398      0.56996969784631      0.05793291684244
  C   -0.10209506651706      0.33572342062660     -0.02622272239203
  C   -0.97921046652151      1.42043383725562     -0.12101278515197
  H   -2.34391465093469      3.52015721177283     -0.06089832105839
  H   -3.87597505196201      2.85415850863679     -0.04150399557906
  H   -4.32106823178925      0.66410697878705     -0.17135940215264
  H   -3.73503042862442     -2.73686903923672      0.40548967355435
  H   -4.85319925813376     -1.47451289808342      0.55608397302801
  H   0.10455470893853     -3.09763820469170     -0.23447214897929
  H   2.51377963920158     -2.62855508752523     -0.21806104585305
  H   5.54642045201494     -0.06613488531075     -0.21058952963738
  H   4.73040314892610     -1.51557115805669     -0.37006658958610
  H   4.19264417631380      2.18561083923239      0.29567143105422
  H   1.62668001562769      2.76527186008112      0.31650349619799
  H   -0.49038072822788      2.38491497003166     -0.18853336213483
