27
Coordinates from ORCA-job ./opt_b97-3c_parallel
  N   -4.62256637676923      0.75717755453209     -0.11726704505037
  C   -3.34148329327098      0.31316449010595     -0.09081606696529
  N   -3.04856999934668     -0.99871282249534      0.05749434089907
  C   -1.69854918393814     -0.98862676421665      0.07079332911254
  C   -0.78464653375050     -2.00513947597165      0.25015304972829
  C   0.58699774789981     -1.73174285255897      0.22238150620544
  N   1.46988062219139     -2.83688120019562      0.33758283149791
  C   1.08611264769840     -0.42564360287247      0.04070783339436
  C   2.47797203338246     -0.20808560404285     -0.28156681740739
  N   3.13957463813855     -1.16418693603641     -0.95739496712678
  N   3.26047108655642      0.83470457257586      0.02670584085414
  C   2.90581074218438      2.07112619066486      0.29001696413163
  C   1.66432117207181      2.68803143699620      0.17240741201474
  C   0.45576155954574      2.05216163326327     -0.01143572179011
  C   0.14412647637877      0.68840930713820     -0.03120016393199
  C   -1.23140633136928      0.37096805890096     -0.07875612256383
  N   -2.29803414760337      1.18461098391843     -0.17222113508368
  H   -4.76501792498636      1.67420040886970     -0.50071328551060
  H   -5.32241988826980      0.07020073603146     -0.33381259345187
  H   -1.12725519792370     -3.01938339665722      0.41879511293746
  H   2.16459327384016     -2.70691759157444      1.05976327179455
  H   0.96384035609146     -3.68774059906240      0.52909816564863
  H   4.13816300302376     -1.06421651321109     -1.01777069580972
  H   2.72637000018420     -2.08354482808577     -1.04673687666517
  H   3.73544735235165      2.70344180596857      0.59708087354276
  H   1.65097402186561      3.76474972824278      0.28253725753434
  H   -0.41857446207650      2.68771176897254     -0.07984186273900
