30
Coordinates from ORCA-job ./opt_b97-3c_parallel
  N   5.31897839337992     -1.66439712211917      0.14665148861238
  C   4.33704777258044     -1.04210593000496      0.09067282090607
  C   3.15923674234752     -0.26733763521764      0.01942247844621
  C   3.37626680029838      1.10829756497462     -0.21604155079271
  N   4.62959289892706      1.52187278302706     -0.48587614821314
  C   2.39849139554474      2.12819481951105     -0.12011761175574
  C   1.06314083219980      2.01373926844146      0.06551999994625
  C   0.20889979685701      0.88351518499431      0.10786409907715
  C   0.59290302432747     -0.49880875885808      0.06037103211351
  C   -0.41831652461733     -1.47033618706057     -0.08003419544711
  C   -1.77564534562809     -1.16979333035555     -0.10423872399257
  C   -2.69594699786411     -2.23171025713379     -0.29722253226404
  N   -3.41213438763392     -3.13090991544004     -0.45281555575292
  C   -2.18243072347326      0.16104147679867      0.04826814382854
  C   -3.40419406999568      0.85200962094023      0.08511516390204
  C   -4.70878988842923      0.34538884486611      0.03098145084290
  N   -5.80513198990361     -0.03952318929897     -0.00834283714984
  C   -3.04018612050030      2.22123218189210      0.19245923131232
  N   -1.71920727970572      2.42001619391201      0.21659644278336
  C   -1.16464655713857      1.18021396205537      0.13737876703412
  C   1.93996154891202     -0.97414355552723      0.23473221714886
  N   2.08071440499237     -2.26960567109118      0.58309308031957
  H   5.40749326786644      0.88589768090410     -0.51131723391585
  H   4.83259310691734      2.50019288116603     -0.56704252604360
  H   2.78182231312404      3.13794957256111     -0.20600719724709
  H   0.51438327859138      2.94489319574488      0.12956981818540
  H   -0.15502678727287     -2.50005041424069     -0.26052526676194
  H   -3.73122624049350      3.04869072644769      0.25228042315949
  H   1.30522348482791     -2.77511265824831      0.96543146782902
  H   2.99065328046184     -2.67449614234086      0.71792807058925
