31
Coordinates from ORCA-job ./opt_b97-3c_parallel
  N   -4.64966067753497     -1.05735283319402     -0.57724713558092
  C   -3.68114571864313     -0.44163884885065     -0.38603123800821
  C   -2.52622672403652      0.33490515281768     -0.15256725360357
  C   -2.76778908596069      1.63395883344278      0.35478888100202
  N   -4.01088014580583      1.92817467681823      0.78893828338790
  C   -1.83361419941788      2.68918851447075      0.34457653643036
  C   -0.50469786468913      2.64931738416930      0.05114310902899
  C   0.39589697241658      1.57497500766015     -0.12764802856448
  C   1.75705242964032      1.94480409059612     -0.18118116415639
  C   2.77775603052030      1.01524715276610     -0.15532389110953
  C   4.12915530659707      1.43894388706023     -0.22593612177343
  N   5.23838435322643      1.77431414154446     -0.28290512891763
  C   2.46797118774270     -0.34557867787165     -0.00063413691941
  C   3.27924434392824     -1.46721061552027      0.17729296510110
  C   2.44649293878124     -2.56831021011341      0.35575959541756
  C   1.09283362750183     -2.17557443464148      0.25807413317023
  C   0.01423146372069     -3.01375472784291      0.55143968526700
  N   -0.89999889739030     -3.70199024821743      0.77355731652172
  C   1.07044583118952     -0.75960369084972      0.01946566721273
  C   0.04546339488258      0.18321395754890     -0.15091294512511
  C   -1.29260576479914     -0.25845785196618     -0.52059134385585
  N   -1.35205314504857     -1.36251175366726     -1.26845963412087
  H   -4.76227096227685      1.26409287547080      0.72078612200215
  H   -4.25423381696140      2.87223830856442      1.02188705693111
  H   -2.23624679567925      3.66452972285374      0.58868021643277
  H   -0.02356880525160      3.61982684145291      0.05541097247566
  H   2.00536921195418      2.99506009211354     -0.21461846896194
  H   4.35621287076374     -1.46640806464247      0.20712574638344
  H   2.76378530207750     -3.57620555933484      0.57165748537883
  H   -0.50870244956537     -1.87208310255352     -1.46381078851851
  H   -2.21573254498276     -1.86288511728478     -1.40010166372748
