28
Coordinates from ORCA-job ./opt_b97-3c_parallel
  N   5.72598953153995      1.07625481699044      0.69452552604036
  C   4.69624553842853      0.59182859368135      0.46774129103669
  C   3.43074787999859      0.00521227676545      0.18383855433353
  C   3.41043697634923     -1.36514045743771     -0.03180589076176
  C   2.29530884258656     -2.16516268447025     -0.26390915777550
  C   0.96263515094942     -1.82797459125683     -0.26935616262671
  C   0.30373577878765     -0.58545531299605     -0.12807394537676
  C   0.99782030544509      0.71163781712872     -0.11484416901264
  C   2.34699182479591      0.90297118690582      0.10722124548404
  C   0.18459483497540      1.90387329538200     -0.24032775478978
  N   0.77567353318963      3.13261735285007     -0.41176472197799
  N   -1.13170903575689      1.90425089493588     -0.13023630043486
  C   -1.75192640355716      0.73692358392563      0.02097064676597
  C   -3.13734971575497      0.51453970314357      0.15466203208995
  C   -4.13092749737980      1.49923771829323      0.23002631419209
  N   -4.95962667492653      2.31158571525157      0.29142675382253
  C   -3.33969809300506     -0.88326290224434      0.17811891928540
  C   -2.11414080658406     -1.54359893463741      0.06115708214144
  C   -1.95702290487257     -2.93344773985836      0.06375823186508
  N   -1.79968474522474     -4.08715742106746      0.05957002300266
  C   -1.08281030880561     -0.54786517690300     -0.02921316370703
  H   4.36732967225382     -1.86873646202126      0.00129836197053
  H   2.50365481745535     -3.21640175649693     -0.41415199093753
  H   0.29815842662121     -2.66966364720371     -0.39754491786552
  H   2.63299257582685      1.93258412379827      0.27414543135771
  H   1.53362606824558      3.19843461692885     -1.06930743311970
  H   0.09687160153213      3.86960412310912     -0.51941878188671
  H   -4.29571719811175     -1.36980411269782      0.27434927028404
