28
Coordinates from ORCA-job ./opt_b97-3c_parallel
  N   2.78868060023196      3.29440561919793     -0.23374557484834
  C   1.94975980270174      2.49559956408622     -0.17271340396165
  C   0.88902326337457      1.55665929900196     -0.10458016075098
  C   -0.41580482126854      2.01875024965825     -0.15125297572385
  C   -1.52286036016909      1.15579697950768     -0.06147184485058
  C   -2.77867946423193      1.78983640721591     -0.02370394852809
  N   -3.97036199505222      1.35326872246570      0.34194196064433
  C   -4.25225119038801      0.07632389305287      0.57398489165880
  N   -3.66739041421065     -1.02775216038694      0.16882160446017
  C   -2.42134908512164     -1.15945546874179     -0.28082800594897
  N   -2.19592623489809     -2.28435128045010     -0.96807628526507
  C   -1.30241878138563     -0.27533745706549     -0.02898648152962
  C   0.00443599970519     -0.75883973575607      0.03540895934546
  C   0.54474822754902     -2.06342477382746      0.13326566749628
  C   1.93195226811593     -1.95560014189509      0.19711953264262
  N   2.83885039746394     -2.95495223601802      0.28707055643655
  C   2.30698984608720     -0.56496760031635      0.10136769025315
  C   3.64054339802344     -0.15112502935180      0.12374123473592
  N   4.78312342198187      0.06964031716018      0.16254387568927
  C   1.13156633843673      0.17819656546741      0.02010019773303
  H   -0.59063987229842      3.08205421375840     -0.21693794707838
  H   -2.75770832479311      2.85278621954097     -0.24815910421020
  H   -5.17973212361470     -0.08455015640214      1.11525247176269
  H   -2.97131606522861     -2.89638558575180     -1.15253767840522
  H   -1.30973099881929     -2.45039788493907     -1.41204852413146
  H   -0.00149210656216     -2.98280014848312      0.26081310757783
  H   2.53455843676036     -3.86463245429263      0.58132963833072
  H   3.78680454611028     -2.71592741283606      0.52407569026549
