24
Coordinates from ORCA-job ./opt_b97-3c_parallel
  N   5.02050333291725     -0.60114669814140     -0.09805313162618
  C   3.96157248409506     -0.12174235949156     -0.06133113330468
  C   2.69837673140882      0.47554583590416     -0.01600015506747
  C   2.40737505323407      1.87979036999963      0.01767396970145
  N   1.10971037224557      2.15777257251428      0.06067601652043
  C   0.48479880121513      0.93720373936929      0.06189017782828
  C   1.44549213516268     -0.14523192208919      0.02046676769968
  N   1.11025645238155     -1.44046581306758      0.05855934237488
  C   -0.17557715587943     -1.73848173863126      0.07446260309175
  N   -0.48486668715479     -3.07781161432301      0.12868017220103
  C   -1.24158037747093     -0.75508929965962     -0.01027687324024
  C   -2.52102348013798     -1.21402064758114     -0.27590756416579
  N   -3.73165090388983     -0.64754099862170     -0.14225352356072
  C   -3.99587448879766      0.61668054443093      0.05142499002390
  C   -3.14323632032292      1.74172013598269      0.00880019253240
  C   -1.77911755438938      1.74335689997795      0.01731639211542
  C   -0.86765557138641      0.65827926273254      0.05336116293941
  H   3.14732045357148      2.66667788784660      0.00817257171206
  H   0.33455696618391     -3.65065261803511      0.25554742550012
  H   -1.25477559809016     -3.35496586132442      0.71218438561406
  H   -2.58862258357100     -2.24397426935795     -0.60793833430851
  H   -5.04438260914021      0.82373078815778      0.25157718290155
  H   -3.63783288152166      2.70480332639367      0.02870702539409
  H   -1.28727094156305      2.70850757921463      0.02680549112316
