30
Coordinates from ORCA-job ./opt_b97-3c_parallel
  N   3.01569628589235     -3.08193112731797     -0.01541124160071
  C   2.41948634196499     -2.08196139287830     -0.00622986812399
  C   1.85447372789289     -0.78755748426951     -0.00636885327384
  C   2.78293259198458      0.28947842165590     -0.14993182149818
  N   4.07053576871368     -0.03510677949451     -0.40255822657095
  N   2.58333944930974      1.59666262209357     -0.04761298017988
  C   1.41019491728068      2.20799950572940      0.11281089713135
  N   1.54475579287863      3.56008624993777      0.29160096601817
  N   0.14460784921947      1.80575683042384      0.06815277827565
  C   -0.32397382310882      0.54320952254508      0.01300247656225
  C   0.44208971485416     -0.72206250765699      0.06382008977346
  N   -0.16480823541651     -1.90559605964507      0.14214949380809
  C   -1.50147608640433     -2.02838693511766      0.10277533104455
  N   -1.96188375753477     -3.30765441541606      0.16425078169050
  C   -2.32590601036954     -0.91549648935231     -0.04705373672003
  C   -3.71631145835900     -0.70925800459226     -0.16428828157822
  C   -3.97583660093102      0.65744477953751     -0.25937317999163
  C   -2.74701357824584      1.34573223078722     -0.19648071053263
  N   -2.51952823298103      2.66711169172823     -0.22801676589279
  C   -1.69626968666985      0.36701822968660     -0.06946713656851
  H   4.74391221970699      0.70755847517524     -0.37656906259698
  H   4.38598892779478     -0.98832136670208     -0.38806358368788
  H   2.46370858916583      3.88058849841119      0.53812854089706
  H   0.76851504193558      4.03755408536922      0.71169361599761
  H   -2.90859784458640     -3.46789586121915      0.45468052306679
  H   -1.28456985381288     -3.99414624733250      0.44966792625941
  H   -4.47385692220895     -1.47865854532316     -0.19122976642839
  H   -4.94678937534276      1.11493563425677     -0.36498872921687
  H   -1.54533147440721      2.94437618867721     -0.24679960925874
  H   -3.24540205541551      3.31459449830282     -0.47376959460467
