29
Coordinates from ORCA-job ./opt_b97-3c_parallel
  N   -5.58550902130076     -1.88378990165750     -0.01204661277660
  C   -4.53047321412121     -1.38996261824834     -0.00875588192423
  C   -3.29010651126515     -0.72315542231905     -0.00477666783839
  C   -2.13429564647640     -1.53037104535457      0.00003096595595
  N   -0.85713065054044     -1.27510474037175      0.00335567082143
  C   -0.22163755683539     -0.07730799218980      0.00355017278503
  C   -0.82849634179056      1.26325321678675      0.00414227791017
  C   0.03212131020062      2.39172590106211      0.00843538684080
  C   1.40397164278150      2.29756530310465      0.00950322640318
  C   2.00329309758537      1.04567831691615      0.00573720268211
  C   3.34478607679381      0.62102544167739      0.00418014072635
  N   4.46689563554596      1.36683712937311      0.04217976268836
  C   3.34074792076708     -0.82537535425467      0.00861928286082
  C   4.51622927341710     -1.58636676609025     -0.00546567416341
  N   5.53678395880663     -2.14511196657805     -0.02266282344701
  C   2.02538108536631     -1.26684703764194      0.00858469189420
  C   1.17271299930601     -0.13196000344137      0.00634958484161
  C   -2.19661148150229      1.53025611904933      0.00035925108616
  C   -3.32078363480843      0.69693026062614     -0.00438640152008
  N   -4.53182786029812      1.29878466698576     -0.00991151457406
  H   -2.35854678311845     -2.59482799899073      0.00089086003761
  H   -0.42551157647608      3.37169403497494      0.01191040643931
  H   1.99281384799274      3.20747478949804      0.01719777722688
  H   5.35355914616615      0.91980040319870     -0.11646270913265
  H   4.42504934098151      2.34817752846169     -0.16121796893719
  H   1.70080911645092     -2.29237615174953      0.00443893906691
  H   -2.43797973979182      2.58769472313283      0.00089641990185
  H   -5.37985782040775      0.76022289624894     -0.00690764302829
  H   -4.61168442102890      2.29721995559104     -0.00184543962686
