29
Coordinates from ORCA-job ./opt_b97-3c_parallel
  N   4.07473988777928     -1.89719492992999      0.52921782532048
  C   3.08160229227252     -1.32049148272541      0.34901929920373
  C   1.85371000055347     -0.65545670867700      0.13655013841583
  C   0.66453265854821     -1.39929332341644      0.10950221015058
  N   0.74615020574877     -2.80048254653417      0.19146029193677
  C   -0.59111657665140     -0.76033617408414     -0.05529372070986
  C   -1.75442558648617     -1.59088537638060     -0.36439986788306
  N   -1.58004217259842     -2.62634126211727     -1.21160624365622
  N   -2.98135555460846     -1.46911886255293      0.10453627847390
  C   -3.52976835309141     -0.36709180580051      0.59519050253326
  C   -3.13433449845719      0.93826575517109      0.47121365186049
  C   -1.90822898559688      1.43684137712128     -0.01283225419842
  N   -1.83383027023641      2.74245159056989     -0.26960054660440
  C   -0.66763902722232      0.67433474899587     -0.10087828383681
  C   0.54097326587025      1.38761400767239     -0.16785459874445
  N   0.72738028937176      2.73349695128126     -0.28667691146903
  C   2.06787160567357      2.92652037862849     -0.24073205766483
  C   2.78523697506708      1.74070970893485     -0.09166102839687
  C   1.81920721855862      0.73125590208444     -0.04494649116980
  H   1.67858845003546     -3.12172403074895      0.40722201741740
  H   0.09238922838651     -3.20327757907846      0.84648922492198
  H   -2.34201124062501     -3.28103632001373     -1.26920732004529
  H   -0.64674519249825     -2.97732810380953     -1.36782373554164
  H   -4.48262381797149     -0.53735698399068      1.08752523936011
  H   -3.85787653693475      1.68404882279359      0.77903563104016
  H   -0.88222966036891      3.16076721639159     -0.37341991993504
  H   -2.63610659050681      3.32025716002395     -0.08639108663764
  H   2.47073878522316      3.92483631572061     -0.32715833007993
  H   3.85391290536517      1.62519795207063     -0.02602969136090
