30
Coordinates from ORCA-job ./opt_b97-3c_parallel
  N   5.34647222500710      1.19603076395474     -1.12937969106433
  C   4.28372857948663      0.81026035231341     -0.85279221924727
  C   3.05111344535377      0.25562809736598     -0.49027017483795
  C   1.78873622982063      0.84884362993118     -0.53000137556509
  C   0.82943705497749     -0.09471891957197     -0.09175838948382
  C   1.53890065440283     -1.30606631338371      0.23749391547359
  C   0.82540880617253     -2.36643373305203      0.76871824585446
  N   -0.49344523036355     -2.40327289176174      0.78167977443283
  C   -1.20357725158827     -1.34860903393191      0.30788081528572
  N   -2.44348938150063     -1.64929553478462     -0.01479163113129
  C   -3.46224219545023     -0.85721623165242     -0.34120762971974
  N   -4.46689344458692     -1.52150103751759     -0.97869404063484
  C   -3.64651340789638      0.49440819781093     -0.04900179453439
  C   -2.66768837596948      1.42133718112858      0.29140768883750
  N   -3.09647984277986      2.66651353938554      0.62910259959084
  C   -1.25300408383483      1.19520207873269      0.28325987622685
  C   -0.49478813572716      2.36256562547918      0.50223973006947
  N   0.03012322271487      3.38355633201954      0.70092981765500
  C   -0.55669858343778     -0.02864769440026      0.11694757571192
  C   2.91394229222394     -1.08625907073987      0.00518724416706
  N   3.93825757823220     -1.94458642572433      0.15157562909395
  H   1.60703126214219      1.85224165770465     -0.86979837394617
  H   1.32330050075474     -3.23838644635745      1.18645034837887
  H   -5.35912724907014     -1.08309957050416     -1.11111123757871
  H   -4.44975046551044     -2.52388433741157     -0.91432860591217
  H   -4.65860197414216      0.87390885099487     -0.12746952446785
  H   -4.05511802901034      2.91238518920272      0.47071807968153
  H   -2.44317909804005      3.42784476192336      0.69198739734489
  H   4.88137018573188     -1.60668280189886      0.06993142895529
  H   3.81091641148248     -2.81936023565110      0.62446695976912
