31
Coordinates from ORCA-job ./opt_b97-3c_parallel
  N   -3.09552889672918      2.94951251753225     -0.45896630972700
  C   -2.89247717779460      1.80802319703836     -0.32486706098287
  C   -2.62717759903646      0.45119387878968     -0.13832153205031
  C   -3.57443680262817     -0.59065163823331     -0.27568950726945
  N   -3.04639146738072     -1.81817955907423     -0.21787539450632
  C   -1.71521660148397     -1.61908044240919     -0.07150503915130
  N   -0.80190939079248     -2.58716563125296     -0.08379296605051
  C   0.46831183664747     -2.24582104006219     -0.00757817923701
  N   1.36837281409169     -3.34025773425905     -0.13617333739365
  C   0.94450518606451     -0.91151796288980      0.19160705093267
  C   2.37376776591719     -0.66751727049892      0.32553994096347
  N   3.12803916704738     -1.63976974145807      0.88691105931489
  C   3.04618706839042      0.45181090996959     -0.15132238837011
  C   2.56354608675985      1.74149708148952     -0.38956794675410
  N   3.45257726807117      2.65269293090442     -0.89837109035824
  C   1.33287652589400      2.24226341361410      0.04709658825906
  C   0.27005634872301      1.52322078265379      0.55548393569133
  N   -0.61960654932299      2.15351738998478      1.34370280023949
  C   -0.03209937573343      0.12741091890940      0.23402526848813
  C   -1.37078313243330     -0.22131021601234      0.02133234802777
  H   -4.63186947832893     -0.44573639273356     -0.44296191507192
  H   0.80115318260441     -4.16977480690643     -0.25340222160810
  H   1.96043033076457     -3.24551549766217     -0.95294364698216
  H   4.12823473164053     -1.55134899247833      0.86576555233830
  H   2.73682415852913     -2.57571088946755      0.94721474307857
  H   4.12089490043419      0.34005466984168     -0.24719874242961
  H   3.07830411814937      3.50501524153147     -1.27493949161415
  H   4.24940312996478      2.29921931370616     -1.39642714405924
  H   1.25737340623014      3.32173279687420      0.11285998006455
  H   -1.49518766384250      1.70393442861245      1.54543381832355
  H   -0.65326560851711      3.15847028274657      1.35287988629422
