28
Coordinates from ORCA-job ./opt_b97-3c_parallel
  N   4.26169854392292     -2.32728715203847     -0.10827022874442
  C   3.25140095815073     -1.75989276196498     -0.06337893730464
  C   1.98525348149779     -1.12454573772816      0.00152441773539
  C   0.83557733488181     -1.90121525365338      0.05094032805121
  C   -0.45589596289940     -1.34721081745402      0.09258867218818
  C   -1.57047215749697     -2.27683840697299      0.09909397369255
  N   -1.32684792367766     -3.54046360566618      0.51003720616617
  C   -2.82449437506485     -2.02097935609036     -0.45847756184789
  C   -3.35248380815262     -0.78664118064811     -0.79127787046832
  N   -3.00161158198031      0.40383030954654     -0.35582378723883
  C   -1.89907328938902      0.70034717873399      0.31142680416640
  N   -1.98949253199430      1.70182100559274      1.18574817559748
  C   -0.59808473258567      0.07463576077455      0.10727931847843
  C   0.55240195145360      0.87059086140229      0.01697428763847
  C   0.82486740719168      2.27053833470146     -0.07926351212862
  C   -0.06072179234100      3.34468005363361     -0.18721088845153
  N   -0.80810101140449      4.23644409248966     -0.25331026109420
  C   2.23240446383767      2.36770751309827     -0.15478244451865
  N   2.85473200055776      1.18184245522573     -0.11157451330565
  C   1.86663983390443      0.26834532457651     -0.02352232752231
  H   0.96052911034984     -2.96827174431099     -0.03838719378003
  H   -2.07615179245233     -4.20678172238018      0.53927235463438
  H   -0.51675040405626     -3.75446581845966      1.05973431537802
  H   -3.45111366192345     -2.88000052996875     -0.66711856009706
  H   -4.24623714725713     -0.78764799833434     -1.40724997705503
  H   -2.79467812702043      2.30454152044657      1.13841395497518
  H   -1.16293612487376      2.08270623490720      1.61009503372424
  H   2.78861541352150      3.28762466794088     -0.25620101636891
