23
Coordinates from ORCA-job ./opt_b97-3c_parallel
  N   0.03626551382536     -3.47297315420122      0.56640515386342
  C   0.44857469172988     -2.40620092332988      0.36487969038901
  C   1.05815437595087     -1.14444169222361      0.13360221304576
  C   2.45606084669591     -1.22921347336570      0.16348805917052
  C   3.39890990170281     -0.25093663431315     -0.05301697163409
  C   3.14562289270123      1.09640183923840     -0.30510301257090
  N   2.03304325249888      1.78178288017822     -0.20460722873525
  C   0.76735526582601      1.38130073753977      0.00740702082486
  C   -0.11910216713252      2.44867513829407      0.23120970920996
  C   -1.48889915528696      2.29241207549152      0.26683683806868
  C   -2.02977433897507      1.03931381943715      0.03820486287506
  C   -3.33734753778493      0.56525122925005     -0.08698054213440
  N   -3.35953460364244     -0.76454453351246     -0.36119044136170
  C   -2.08797921593368     -1.18236165445291     -0.38945465100685
  C   -1.17024387394448     -0.11262205992096     -0.15065618342613
  C   0.22097247277274     -0.00412826041628     -0.04847115202136
  H   2.84058740178950     -2.22316968327780      0.35157776768036
  H   4.43714881138071     -0.55648711321082     -0.04959077880647
  H   4.00606397502301      1.70170666775421     -0.57930279469442
  H   0.33029442081705      3.42697694429630      0.30714063925649
  H   -2.12866193228039      3.15194671000443      0.42314747174832
  H   -4.25435322362128      1.12817238754601      0.00188733808679
  H   -1.86827348861222     -2.21164439190538     -0.60988827212764
