34
Coordinates from ORCA-job ./opt_b97-3c_parallel
  N   3.10532500017992     -3.95672453553165      0.73218812545507
  C   2.59157102897595     -2.93705111974272      0.51233948420450
  C   2.03845589263481     -1.65969509437847      0.25124856038031
  C   0.67554177244989     -1.60415695864301      0.04970191184719
  C   -0.22297699391989     -0.54398742089571     -0.07432133898651
  C   0.07316514079056      0.88248311151408     -0.01467816623619
  C   1.37335427738639      1.38809713713938     -0.36513418193735
  N   1.43813989253727      2.61614365063201     -0.91094438019878
  C   2.64494502509404      0.74016996671799     -0.21767201114861
  C   3.76676953162058      1.55740146730620     -0.46459078325673
  N   4.70553805216967      2.22099611268260     -0.65488007252105
  C   2.96966716536059     -0.58023942782405      0.16496089252190
  N   4.26014524065646     -0.87491418069975      0.40032847817632
  C   -1.00423829214703      1.77948192190683      0.20505928591091
  N   -0.77471761046298      3.14848300501639      0.43008152775809
  C   -2.34676560002994      1.34860101765885      0.18497080734846
  C   -3.37576217387576      2.27355331776249      0.45743085481283
  N   -4.21066323372368      3.05155628921414      0.68308229266024
  C   -2.66497422159011      0.00926228707152     -0.07089726507464
  C   -3.83114702267662     -0.72312890231853     -0.16193907732649
  C   -3.39440010729366     -2.06587004970033     -0.31386423039736
  N   -4.17056499393767     -3.16308762444831     -0.41594252692011
  N   -2.04126983290859     -2.19880534335923     -0.31465770780217
  C   -1.57091786850448     -0.94914936930097     -0.17669414810054
  H   0.18146975287406     -2.56712918941852      0.04316462100449
  H   0.61208008952507      3.20020096383457     -0.89737207421883
  H   2.32497768943604      3.05716248473094     -1.08317593145205
  H   4.98272132991266     -0.18696398920592      0.28069551407054
  H   4.54291012561277     -1.82601899505602      0.56275697694189
  H   -1.62110807425202      3.65785123333859      0.63933254417117
  H   -0.08775812797060      3.32501085686806      1.14861406660125
  H   -4.84562858140636     -0.36671564249421     -0.09875104102190
  H   -5.14128300054699     -3.06704380471584     -0.64849066354501
  H   -3.72055895496952     -4.02384177396088     -0.67290587862071
