33
Coordinates from ORCA-job ./opt_b97-3c_parallel
  N   4.98811110337966     -1.51086163793890     -1.29374538762991
  C   4.12494549453689     -0.87708962097234     -0.83781681937892
  C   3.04497815939145     -0.14343957219215     -0.29546043225682
  C   3.36552216997580      1.09638844685478      0.25136284857375
  C   2.54971852069661      2.05993845372691      0.77474796999034
  C   1.15485538636907      2.17241424715154      0.67940296217050
  N   0.63528000110200      3.27733529812896      1.26603590180519
  C   0.25211201498227      1.21567637599903      0.08331931367522
  C   -1.04058879173651      1.64058382274059     -0.29432483573061
  N   -1.30969780658662      2.99754868871592     -0.54268971493170
  C   -2.12056167081622      0.73696894513083     -0.36963444558681
  C   -3.38273681963849      1.19646878300895     -0.80372729319512
  N   -4.38372511355340      1.65785224973859     -1.17212709547928
  C   -1.93949225147843     -0.58473014642513      0.02743524678740
  N   -2.87017386306181     -1.53864693882409      0.11924682766852
  C   -2.18171597391830     -2.65755958091173      0.46149660346145
  N   -2.85189351090424     -3.81763349552713      0.66208860356986
  C   -0.78533622293013     -2.45492946039633      0.53551155002187
  C   -0.58839303499437     -1.08571228882055      0.28211475790273
  C   0.52527121339899     -0.23099241283009      0.13251385758993
  C   1.78958893682008     -0.81269774648158     -0.21124069507906
  N   1.81316244824520     -2.12979320585286     -0.51252887065741
  H   4.42484388009848      1.31958832715206      0.27662824712727
  H   3.05331162186116      2.89527940385800      1.24582714488931
  H   -0.31567921950336      3.54204236473541      1.04751818348593
  H   1.25918173225469      4.00871458671752      1.55430414906032
  H   -0.65513416872425      3.42098458942743     -1.18336345786702
  H   -2.25378836175057      3.15628677481542     -0.86352851021001
  H   -3.84508127797120     -3.73408468916797      0.79547823678179
  H   -2.39991168738726     -4.55570859098166      1.16991126489448
  H   -0.07011644989925     -3.17964242180945      0.88596058690384
  H   2.64913639572323     -2.52120169247167     -0.91253058209235
  H   0.94213524172484     -2.58765478269336     -0.73455922466487
