28
Coordinates from ORCA-job ./opt_b97-3c_parallel
  N   5.16564179604414      1.12015612398069      0.05050202768017
  C   4.16135219825104      0.53363981713301      0.02257308943949
  C   2.96586896560843     -0.19379555836287     -0.00785525966533
  C   2.83661508908942     -1.59485019837980     -0.12237803396162
  C   1.49378901080811     -1.95565230721940     -0.11939436408394
  C   0.70931171159860     -0.77428758232139     -0.01493373840129
  C   1.65784003849506      0.33412101402983      0.03161755721147
  N   1.29791130162258      1.61339335497989      0.04249053390700
  C   0.00549838268123      1.86672529710845      0.03253418815796
  C   -1.04191230812999      0.90468824076385      0.03873761450645
  C   -2.37352444744619      1.44704608636551      0.04134571136669
  N   -2.52682369811418      2.75761066110344      0.38964391580818
  C   -3.53117683620125      0.81302119221035     -0.42095456771964
  C   -3.74951492764768     -0.53286911602021     -0.59315130349166
  C   -2.93601179295160     -1.59847796721916     -0.26248711195564
  C   -1.61152380526534     -1.58716916493105      0.16644445411548
  N   -1.12583776158152     -2.75483681300805      0.64685596149881
  C   -0.66941455172687     -0.48822821905266      0.03204477931422
  H   3.66610210779131     -2.27801243105533     -0.21394300864967
  H   1.15096776269142     -2.96088243725003     -0.29350322695671
  H   -0.24354054037848      2.91314121161308     -0.07593348397844
  H   -1.85094562634986      3.19087768388213      0.98965070600667
  H   -3.46147377654776      3.11086406478955      0.48041712274560
  H   -4.38564571975872      1.45859292272580     -0.58821408319032
  H   -4.74151238598926     -0.80034105112192     -0.93688808858297
  H   -3.40185767625402     -2.57632085137109     -0.30367184339617
  H   -0.23177982379405     -2.76032562783170      1.10773591503436
  H   -1.77131357254493     -3.47987886544064      0.90100061934082
