32
Coordinates from ORCA-job ./opt_b97-3c_parallel
  N   5.55859521539933      1.06863292646351     -0.68837996819610
  C   4.49496994340041      0.65263357130906     -0.46583627777307
  C   3.24026015259723      0.07031156557032     -0.17127188897565
  C   2.14775689470066      0.93883936794604     -0.13264483070364
  C   0.78611561732203      0.77257931930110      0.07037156409567
  C   0.00496259153570      1.97275622129569      0.14646169739281
  N   0.62118147527155      3.19627406509421      0.26393103428406
  C   -1.39620019929720      1.91850879067111      0.04439969854440
  C   -2.14026558596457      3.11564405501459      0.12132702718982
  N   -2.67058689442508      4.14634661954900      0.19717806895842
  C   -2.04434391797541      0.68352239139615     -0.08327287338930
  N   -3.36050107732672      0.47832912711597     -0.18065102347769
  C   -3.50748397829020     -0.87149620661266     -0.18747523082558
  N   -4.72313965348750     -1.42532089409039     -0.26672418916427
  C   -2.26783490867866     -1.56731903301042     -0.08526399208552
  C   -2.14249383778627     -2.95206459074563     -0.10241697825293
  N   -2.07980408112498     -4.11743319080149     -0.11851033351969
  C   -1.28006193076919     -0.55013832017905     -0.01902994437007
  C   0.11084551226177     -0.52826180052987      0.09883784526920
  C   0.78176027847615     -1.75263095327321      0.27419549818388
  C   2.10305410522622     -2.10487067658839      0.33076980258647
  C   3.25374564068820     -1.32579597622303      0.10618961789645
  N   4.44120194642295     -1.95443792402885      0.14196993441976
  H   2.43828923893983      1.95981070085914     -0.34163463264186
  H   1.38794620580532      3.26039315290833      0.90990530836959
  H   0.00211923546893      3.98852790382940      0.32948089575536
  H   -4.82947052197160     -2.41655574298595     -0.38022229149146
  H   -5.51086503476802     -0.83058724359770     -0.44851697285511
  H   0.11814839470307     -2.59755522952091      0.39523712221881
  H   2.29118143439979     -3.15503851750554      0.51915218489990
  H   4.49130630206341     -2.94632859238656      0.28102663593470
  H   5.29869395548305     -1.46662269404461     -0.05376790737779
