34
Coordinates from ORCA-job ./opt_b97-3c_parallel
  N   -4.64687015272601      2.64500513179798     -1.35213684429372
  C   -3.79405205785083      1.97020926844566     -0.93815058759338
  C   -2.80646049568978      1.09850848964121     -0.42652632400162
  C   -1.58304453242419      1.67584562300228     -0.07839963348297
  C   -0.36545603360636      1.12937579724817      0.26748747510944
  C   0.69424946995083      2.06759090259852      0.55798965588886
  N   0.39099673954374      3.35991861815196      0.90057387236254
  N   1.98230674306306      1.78715153450020      0.45480932554096
  C   2.31183086927626      0.55079701081095      0.09028450887528
  C   3.59049724715346      0.05294637950059     -0.14971498892477
  C   4.81098755340996      0.72673610478257     -0.13863140072594
  N   5.86934007287062      1.21293559975843     -0.15482481869606
  C   3.44677357748888     -1.34943901682041     -0.44197189386505
  N   4.48975485268568     -2.14365320121061     -0.74264704653813
  C   2.10080050764912     -1.72219920362979     -0.33725768466479
  C   1.34957424763000     -0.56548182316757     -0.03028552999724
  C   -0.00272875203630     -0.27806658532055      0.16019602448003
  C   -0.95561215905868     -1.33077782795704      0.39085869115720
  N   -0.43492466535613     -2.52052486922029      0.74378266159799
  C   -2.37293335774948     -1.27035861491073      0.31510841534543
  C   -3.05030193998409     -2.45033662401873      0.68197102623670
  N   -3.60676333814023     -3.43052709710348      0.97750584835931
  C   -3.20671793574024     -0.24232497933281     -0.21069927746306
  N   -4.48710294465224     -0.55844158080774     -0.47304825939973
  H   -1.57921589174726      2.75356838369071     -0.17509390662335
  H   -0.37707923945449      3.51266047026776      1.52954591901123
  H   1.20736438327274      3.91190745573130      1.10791064796129
  H   4.33714057731207     -3.07243563854787     -1.08864089591584
  H   5.38617774490169     -1.73000278398711     -0.93130339846461
  H   1.72597141403977     -2.69101070602246     -0.62172203734960
  H   -1.03204373923377     -3.28322030560934      1.01319978578462
  H   0.53149969096549     -2.56401547208451      1.02285333185104
  H   -5.13992088028609      0.15072976926662     -0.75851842669692
  H   -4.83949098157298     -1.48628231244170     -0.31947236466757
