30
Coordinates from ORCA-job ./opt_b97-3c_parallel
  N   -4.67932126048845     -2.65245655947125     -0.60741787361631
  C   -3.81893712608834     -1.88641948213095     -0.45344383891792
  C   -2.73049758337813     -1.01150426083305     -0.21947362684685
  C   -2.96651029694478      0.33396453319956     -0.41180226433094
  C   -2.18979293020152      1.43276969566199     -0.05787205988265
  C   -2.83975872852956      2.69082904774349     -0.07837308224695
  N   -3.32022914307325      3.74880889729996     -0.05613993912249
  C   -0.84339579259601      1.43514688762710      0.38301686961339
  N   -0.37672651198611      2.55502739979052      0.93490673361439
  C   0.10812550600310      0.35753931071784      0.16862048545531
  C   -0.22999698084862     -1.03897414671908      0.21573180967024
  C   0.83500847162615     -1.98036036525305      0.14371395936642
  N   2.11595538139426     -1.69452275520753      0.05026689162224
  C   2.44612774925394     -0.40889828654745     -0.00091028902281
  C   3.72878635367055      0.15359162785533     -0.13394115676438
  C   4.94368348690961     -0.54072655873202     -0.18731084386963
  N   5.96169490058082     -1.10069284965318     -0.22970018705625
  C   3.55345492527979      1.55340820315114     -0.23912007048091
  C   2.20706423083898      1.88090699279817     -0.13842520382412
  C   1.46583180846037      0.68049491871712      0.01976454649459
  C   -1.54127866546815     -1.60603358222639      0.30989223693522
  N   -1.66921904800679     -2.84487867869252      0.80711188316941
  H   -3.95170635792601      0.57613196928278     -0.78535582672785
  H   0.57085718938609      2.59415190342271      1.27017987933165
  H   -0.97247516054880      3.35259808697778      1.08314600707267
  H   0.60109613184994     -3.03351114918669      0.06094479912526
  H   4.35659712954517      2.25671079500494     -0.39078799200292
  H   1.82584706984126      2.87813412093973     -0.28035379907102
  H   -2.54907496575637     -3.33126209175234      0.76637827337277
  H   -0.90713989459931     -3.30426363258476      1.26743428254025
