30
Coordinates from ORCA-job ./opt_b97-3c_parallel
  N   -4.24284641939495     -1.59837670013672     -0.10907334598779
  C   -2.95547516914260     -1.09801449962793     -0.04680518520423
  C   -1.90874839112758     -2.02915029355776     -0.16962368399212
  C   -0.56829669369189     -1.80282599435685     -0.07082584718921
  C   0.21948723797532     -0.63250064722762      0.03170864508007
  C   -0.28490141917304      0.72948816678984     -0.00786512088169
  C   -1.65005542212413      1.04508701790450      0.35188442118264
  N   -1.87850076051631      2.27305083950457      0.89976866226279
  C   -2.79552310713705      0.24484236929741      0.24089372614002
  C   0.64956764807976      1.77304993660556     -0.24718512037335
  N   0.20318464468473      3.11274040876096     -0.49141560714177
  C   2.01866670642943      1.54177856815687     -0.26119414225489
  C   2.54221934319819      0.28564039858886     -0.03709914589949
  C   3.85077135680596     -0.21292259470040      0.01473100867611
  C   3.75646290330399     -1.60088120664738      0.17611184753395
  C   2.40935618126472     -1.99365026223965      0.21351269565562
  C   1.61705991390491     -0.83934121434278      0.09113770944619
  H   -4.97114927383319     -0.94327704567544     -0.33421710292782
  H   -4.35287761126782     -2.47964255314163     -0.57934685400463
  H   -2.20722170324689     -3.06028530347307     -0.32361413997479
  H   0.02703723705124     -2.70197317393292     -0.14738015593528
  H   -2.83216940677914      2.57716470310726      0.98326655432462
  H   -1.18515239649822      2.99499763173340      0.71310327238851
  H   -3.72024050889095      0.76967475666344      0.46308758325763
  H   -0.34600366057695      3.16970678639241     -1.34010745666181
  H   0.99369867531878      3.73134723194642     -0.59606660135758
  H   2.68409378343336      2.37567277382921     -0.46473250021939
  H   4.75766569450432      0.36711404072336     -0.05732250992837
  H   4.59560554654004     -2.27568406808618      0.26805812500345
  H   2.06999814490586     -3.00683469185779      0.36199949038259
