29
Coordinates from ORCA-job ./opt_b97-3c_parallel
  N   5.43770857682967     -0.42628848653702     -0.20173345206258
  C   4.32342041523043     -0.08970770001283     -0.18924405476288
  C   2.95562033920237      0.25913863553973     -0.14603438121724
  C   2.65580290115923      1.60882504761643     -0.34983005525502
  C   1.49090931973382      2.28913568133767     -0.14631635927250
  C   0.21853653275281      1.79767331408326      0.20281886077057
  N   -0.67894569409803      2.74301148670275      0.57009815805457
  C   -0.24434763496142      0.44924020608432      0.08325593948013
  C   0.61227458022863     -0.72729049649201      0.06701098753325
  C   -0.00820991733709     -1.98519428127398     -0.05781557940219
  N   -1.31116501651754     -2.23422501404998     -0.11809371886665
  C   -2.11670476438740     -1.18781126370005     -0.05179317302367
  N   -3.45686726711091     -1.26025286810462     -0.11604090564292
  C   -3.86731955517088      0.02181643449361     -0.13396937785319
  N   -5.19582013873005      0.30774729799656     -0.17989093487429
  C   -2.81027248076148      0.96515468894279     -0.05396752064776
  C   -1.63534700288738      0.20452057634241      0.01367073674658
  C   2.04371532047395     -0.76806674026372      0.21376274251844
  N   2.59526044630567     -1.91988260291125      0.64510579365653
  H   3.50823069614334      2.22069365685388     -0.61574165948061
  H   1.55898376533506      3.36656991585024     -0.23598153028658
  H   -0.33379437903991      3.65320103553929      0.81547731256032
  H   -1.52154678839363      2.44799582192184      1.03506419782459
  H   0.61096242371532     -2.85929240586541     -0.20936938069533
  H   -5.78560967777137     -0.45715336733812     -0.46145091200667
  H   -5.47233621866561      1.20970681326599     -0.52398474571607
  H   -2.94567828360179      2.02740060732513     -0.16544157626770
  H   2.03532939341337     -2.63301598416296      1.06842119892907
  H   3.59421831071155     -2.01984489468427      0.69764252265994
