36
Coordinates from ORCA-job ./opt_b97-3c_parallel
  N   5.13799480266073      0.64404948916814     -0.31155443855100
  C   4.03569931564923      0.28407898681543     -0.20097324616964
  C   2.76067923065382     -0.27087519302276     -0.07793863919637
  C   2.53220115074250     -1.67227829395899     -0.10427223912056
  N   3.49548634472362     -2.61255654747698     -0.20082235096904
  C   1.14235694977556     -1.92106091809213      0.01576813686801
  C   0.60723980994940     -3.19464313127113     -0.14403827849312
  N   0.20145767902401     -4.28254541708039     -0.27093533535895
  C   0.48194794114160     -0.64713997769931      0.12538486985754
  C   1.50398842193655      0.36169273909766      0.03331802969876
  C   1.12984638359185      1.70850662268480      0.00323420265990
  C   2.08821548935618      2.73231059702198     -0.17377175498224
  N   2.79920826171951      3.63968334594408     -0.32120063469010
  C   -0.22569397273833      2.08282533573554      0.07582438224285
  N   -0.54961668312848      3.45715480865029     -0.00949838933311
  C   -1.23450172199123      1.10821184728361      0.23881434938166
  C   -2.63114882894103      1.52249846231981      0.39821045300404
  N   -2.86772722448527      2.67865247233216      1.06053647996553
  C   -3.72073307182032      0.85039605970380     -0.13091044251402
  C   -3.75306915648201     -0.48917353342237     -0.55973888094807
  N   -4.76758535489619     -0.88771678828313     -1.36803795995807
  N   -2.98589834278207     -1.46426646465612     -0.09681256871489
  C   -1.84443979602914     -1.31550866911191      0.53369807727782
  N   -1.53541095224514     -2.24075183097004      1.44683445519237
  C   -0.85438975980637     -0.27153215519311      0.26956267494809
  H   4.40944573287523     -2.32404147153759     -0.50472917141395
  H   3.22664177599741     -3.55110608729569     -0.43949268169897
  H   -1.15368681589385      3.65805626154594     -0.79546470345966
  H   0.27859769630262      4.03045672841365     -0.09361132010617
  H   -3.79903116073984      3.05573594063791      1.05467004008012
  H   -2.10246916188805      3.33634072866557      1.15556194968238
  H   -4.66300405869136      1.38463092059065     -0.15902848455373
  H   -5.22346756039101     -0.21652240978742     -1.95682006964520
  H   -4.75826076163191     -1.84297249562052     -1.67953280219757
  H   -2.05755057465801     -3.10145127832988      1.44625485221625
  H   -0.60095681865649     -2.28058272170456      1.81425331269757
