29
Coordinates from ORCA-job ./opt_b97-3c_parallel
  N   -5.33218373239677      0.18073644184181     -0.19374542413236
  C   -4.17551523118404      0.03857826393553     -0.14986236901078
  C   -2.78352299502760     -0.12952804898483     -0.08927680770401
  C   -2.30182865898730     -1.42968854166477      0.24240334784861
  N   -3.17254646091832     -2.29916438631717      0.80253167150558
  N   -1.11257986429111     -1.94219942079641      0.00131080089268
  C   0.04947155616835     -1.37340340250383     -0.27078336937068
  N   0.97689437973132     -2.23171025033510     -0.74496820863953
  C   2.26171892350739     -1.91829908659170     -0.68939922075424
  C   2.70380768273931     -0.75597539786758     -0.09241841067773
  C   3.97038129639914     -0.19454274824868      0.21862226155260
  N   5.18815744305875     -0.72297232302696      0.06217101898675
  N   3.84348903599330      1.06237780042646      0.74262917046751
  C   2.53964604240714      1.33565837138121      0.74962039286537
  C   1.74770371338499      0.25306432296984      0.25523267266414
  C   0.38458978478274      0.03944043021081      0.00792409247570
  C   -0.56305221981481      1.09140258517024     -0.09230421499751
  C   -0.06191593592270      2.40787883821972     -0.11838058976945
  N   0.26775059235943      3.52418846687089     -0.15863795062992
  C   -1.98056932061545      1.02253500181799     -0.25883565341876
  N   -2.62363560525788      2.16890236679186     -0.55988428007522
  H   -2.90715880335616     -3.26743162835566      0.81148426535473
  H   -4.14236176372924     -2.06664761473583      0.91913761116944
  H   2.94432270553409     -2.64250406252806     -1.12601357609039
  H   5.32256675373233     -1.67258212519347     -0.22768166290810
  H   5.98290836399742     -0.19950984714162      0.38370191784917
  H   2.19610249135856      2.28300729347985      1.12871147308110
  H   -2.12884402298727      3.04237265037568     -0.59707015153238
  H   -3.62728070266407      2.20057421319677     -0.57827696430163
