23
Coordinates from ORCA-job ./opt_b97-3c_parallel
  N   4.44746030301746      0.81775224645307     -0.10936964490827
  C   3.20082815357070      0.33119123367506      0.00140810252993
  N   2.97002855670520     -0.98578563899699      0.21019256102078
  C   1.63056867431231     -1.04459301726221      0.21834470890799
  N   0.87084454483746     -2.11794662347745      0.40778681741586
  C   -0.44791100679724     -1.91869899375620      0.32612502401857
  C   -1.09071539731874     -0.69347743053759      0.12297956514694
  C   -2.50346049515167     -0.65936998115149     -0.08572665859995
  N   -3.12945980224174     -1.74851351999844     -0.55183229724584
  N   -3.34024548366682      0.34121892174611      0.23523546487747
  C   -3.03184616466354      1.60475675568815      0.35894107512135
  N   -1.97873745306397      2.31713105927347     -0.05738782962898
  C   -0.78263408310068      1.80506778262118     -0.26326493885816
  C   -0.28926063669513      0.51017899557401     -0.01977247697728
  C   1.09810811424098      0.30532099467008     -0.00347799959512
  N   2.11723615231077      1.15931623449716     -0.12540706820256
  H   5.21097689509742      0.22738218118587      0.16439161767960
  H   4.57334240293462      1.81233981927989     -0.07403341982169
  H   -1.05167805627521     -2.80411950798582      0.49516617568295
  H   -4.13351068588094     -1.74259147828306     -0.59205359837096
  H   -2.62640297076633     -2.52751911527635     -0.93194138467897
  H   -3.81479518001171      2.20944735116597      0.80844221838590
  H   -0.03986092069290      2.51444071459536     -0.61440743079995
