30
Coordinates from ORCA-job ./opt_b97-3c_parallel
  N   -4.72733606724374     -0.24370559385703     -0.39665010256958
  C   -3.57672780946894     -0.15068005137588     -0.26203011381425
  C   -2.18280501728754      0.01037857209641     -0.10450481188832
  C   -1.63771777838603      1.29182070121591     -0.12698849911241
  N   -2.45386011871511      2.40506224973357     -0.19634329967876
  C   -0.21570919631517      1.47269916158037      0.02136235497160
  C   0.19886871349281      2.73668462450146      0.46235466096922
  C   1.45227913988091      3.24966839845603      0.72054651962305
  C   2.67475163419212      2.68492383367360      0.38315868159650
  C   2.91052908295558      1.49129212873818     -0.25585328291563
  C   2.01749482259374      0.45880715745587     -0.57666338585095
  N   2.48287282854304     -0.50419302659487     -1.39041397555078
  C   0.64616865287715      0.31137900809419     -0.11701463980851
  C   0.08572683822509     -0.95261714360661      0.04309285555121
  C   0.63345129855673     -2.28130241892854      0.20555134693479
  C   1.96853727459028     -2.63115960480723      0.41384798530726
  N   3.09553786971095     -2.89820925748171      0.55211345586884
  C   -0.45095608210978     -3.16523875160737      0.33848750816512
  C   -1.65736416427137     -2.46372693254580      0.24306718648830
  C   -1.35462875337090     -1.11372525516928      0.08833171414526
  H   -2.15387142984755      3.12552821630160     -0.83174771014495
  H   -3.43562438142287      2.20349391869609     -0.30251534414754
  H   -0.61867732302941      3.39185860126187      0.73285764363209
  H   1.48161819415284      4.22299540146494      1.19214198648106
  H   3.55362356846491      3.28051398377508      0.59904118115017
  H   3.93701468273673      1.30942593901896     -0.55332052091479
  H   3.47077896413688     -0.60300451590570     -1.54344777828020
  H   1.93389580375560     -1.32857224898174     -1.55419821169599
  H   -0.34686965474871     -4.22278754463012      0.52262548939112
  H   -2.64698426455537     -2.88683068517493      0.29700514299709
