27
Coordinates from ORCA-job ./opt_b97-3c_parallel
  N   -3.70932630757739      1.66355827741871     -0.31243310347438
  C   -2.84851827104893      0.61518710817619     -0.10060114760023
  C   -1.47994385174834      0.91199561619500     -0.10614025052283
  C   -0.34672834989042      0.10397225577661      0.01512159838820
  C   -0.37718750725116     -1.37091043177508      0.02890157215699
  C   -1.56187778232911     -2.10368820919244      0.20622536744809
  C   -2.88184295587714     -1.69790347459799      0.30616867268833
  N   -3.48997285943993     -0.53338552461240      0.15538455899644
  N   0.73081429768871     -2.11624439331328     -0.07580447551202
  C   1.94186461311578     -1.54584428703917     -0.16256570817410
  N   2.97079909366743     -2.40289659798953     -0.36287959623840
  C   2.11166022802597     -0.16041401193088     -0.07053770605982
  C   3.19700953256158      0.71801620511782     -0.06179844224159
  N   2.79915088040688      2.00064453548910      0.09569865300840
  C   1.45240047617120      1.98143889371497      0.17502689497142
  N   0.75906615332363      3.15682962410952      0.33446163774776
  C   0.93793120677251      0.65933186805147      0.06146409122356
  H   -3.38081447791809      2.46242705626649     -0.82410315812061
  H   -4.66220061445473      1.39362956358544     -0.48499910746353
  H   -1.26477009252748      1.95803511824230     -0.28049112791276
  H   -1.39850651471396     -3.16945880619106      0.29454206449714
  H   -3.57876482904400     -2.50555373876825      0.51663787408728
  H   2.77412043537865     -3.37840834521102     -0.22240390979889
  H   3.91226658236036     -2.09516917839533     -0.20626288420707
  H   4.24903801129876      0.48816050984500     -0.15068852468803
  H   -0.05367073726182      3.10302159390934      0.92848885289798
  H   1.36871775311106      3.91935141761852      0.58992050680262
