35
Coordinates from ORCA-job ./opt_b97-3c_parallel
  N   -5.04552021928760     -1.92540594235824     -0.75810190390362
  C   -4.07456445053103     -1.31191977740990     -0.55573911372458
  C   -2.92060520796577     -0.57068379462665     -0.31355891239990
  C   -2.88137630833764      0.80100867524792      0.04712581646380
  N   -3.98236683226337      1.59841919437474      0.18344345639950
  C   -1.53796485523368      1.17913426689753      0.19890209130796
  C   -0.96449958256547      2.44337176125756      0.35189484478566
  N   -1.75839334895096      3.57644873958107      0.48656989440206
  C   0.41717291206453      2.53531533335063      0.34267710537378
  C   1.27077074456316      1.43329030943169      0.16970038789856
  C   2.63401950375901      1.70868376562084      0.01166352912818
  C   3.68955380832165      0.88407503266708     -0.36918172703548
  N   4.88964599902777      1.49774692764075     -0.64202323476136
  N   3.76945657912822     -0.44627967915509     -0.47992370854180
  C   2.85572132143807     -1.30160452413794     -0.05517348095458
  N   3.29134015602068     -2.58940253805805     -0.06261235151370
  C   1.50043367189625     -1.07531591544246      0.35970560845441
  C   0.92507851135633     -2.14329081986912      1.04854073652658
  N   0.47842370875553     -3.07583517902171      1.59692651884703
  C   0.68975126611698      0.09163361830235      0.13899288487037
  C   -0.70036973080268      0.01518783297003      0.03018308822798
  C   -1.59805972415012     -1.07465440515840     -0.31861766642149
  N   -1.30656438568871     -2.32392166257875     -0.72353199726028
  H   -4.86648864479187      1.11387574032870      0.18021617277838
  H   -3.92630653686010      2.29795041702291      0.90656785898241
  H   -2.56244434523237      3.58493916140479     -0.12337993258168
  H   -1.24496382167065      4.43921191252041      0.40035551879016
  H   0.87122371421469      3.51641980766125      0.40828196401651
  H   2.89061356476204      2.75922906526685      0.08329188648168
  H   5.56307321289192      0.91047084899475     -1.10220889635620
  H   4.87757680125986      2.45689959244973     -0.93835558933874
  H   4.28376939626286     -2.71833692354486     -0.14046605691840
  H   2.75601946692268     -3.31595728925174      0.37723963674721
  H   -0.54495653028700     -2.81815145450035     -0.28414920146660
  H   -2.10037416514147     -2.91211623467886     -0.92527491560449
