29
Coordinates from ORCA-job ./opt_b97-3c_parallel
  N   5.58994360433046     -0.94192250136505     -0.02790431591620
  C   4.46857532029448     -0.62502880516415     -0.02529775593174
  C   3.13247536714636     -0.22982710907481     -0.02242310958670
  C   2.66607796896854      1.11023429528694     -0.02744151268448
  N   3.45198862284553      2.18831738734148     -0.03576473387608
  C   1.23398981896268      1.09626825968788     -0.02211706174071
  C   0.29178357789458      2.09189166341204     -0.02349829822597
  C   -1.06414778409495      1.73798147545630     -0.01666384102851
  C   -2.02811068711300      2.77464269629416     -0.01821935546019
  N   -2.76248100724510      3.67427808694758     -0.01972434164096
  C   -1.52155969247441      0.38514538996521     -0.00830187488539
  N   -2.84555891918323      0.23593882121686     -0.00287369265740
  C   -3.52918015367498     -0.90834690064004      0.00540016823568
  N   -4.86123071089439     -0.72867930548952      0.00858723525399
  N   -3.17475290392509     -2.21481822472021      0.01137193113756
  C   -1.91804856599419     -2.61868836878317      0.00897849515591
  N   -0.73857160695788     -2.02345720920696      0.00126507389129
  C   -0.51151167288293     -0.67448559198966     -0.00664671777496
  C   0.81333078466909     -0.26789088031885     -0.01374243183416
  C   1.99932221090319     -1.08561100002324     -0.01391310014137
  N   1.97097940754255     -2.40476942931977     -0.00711943249876
  H   4.45231324517454      2.09627909469182     -0.03879213517404
  H   3.07006478946334      3.11495122932756     -0.03886279353954
  H   0.55099023917822      3.14204588941129     -0.02966162646738
  H   -5.23162974690487      0.20397857295592      0.00512397792661
  H   -5.46612811932411     -1.52834649593249      0.01523136008090
  H   -1.83188410730468     -3.70360050066496      0.01467267466786
  H   1.03022999320232     -2.81134888161462     -0.00139158041378
  H   2.81179653529797     -2.95662753498749     -0.00717713897138
