29
Coordinates from ORCA-job ./opt_b97-3c_parallel
  N   -4.20396254288941     -2.07177388501428      0.38578030139358
  C   -3.03963685049133     -1.40741537594591      0.13183100180055
  C   -3.12022697030474     -0.06286905216206     -0.22465957141500
  C   -2.12183886899861      0.90894528609818     -0.31553240916117
  N   -2.52275279821643      2.10202580213323     -0.80910789683059
  C   -0.72583107912316      0.75774473467622      0.02883536404296
  C   0.10651167328888      1.87606932989628      0.22229309344062
  N   -0.42583008968584      3.17963365079838      0.41440307430714
  N   1.44574645861609      1.85799289589329      0.23234088416644
  C   2.05514177583257      0.70076443869815      0.06616373859109
  N   3.38651225157222      0.52282202937381      0.02873912671929
  C   3.53891056190302     -0.81721762162620     -0.06660339222654
  N   4.78372848228159     -1.34502043956552     -0.18662039287631
  C   2.31641378509381     -1.54250019456839     -0.08530440384813
  C   1.32530594137729     -0.57669296952361     -0.01692509200453
  C   -0.08942095311904     -0.55252978822181      0.01474481268886
  C   -0.72109881652973     -1.80342003958888      0.10173349941138
  N   -1.96517334830368     -2.20679249441765      0.23828912426803
  H   -4.14348694399391     -3.07466646415303      0.38201105132716
  H   -5.08470839316251     -1.66468681993852      0.13160575703307
  H   -4.12090295517510      0.29440679911401     -0.44605385922623
  H   -1.89542542993450      2.89657139493869     -0.72701269963795
  H   -3.50005421683368      2.27258437810551     -0.95635512456015
  H   0.35688090778466      3.80965125614463      0.52749068116704
  H   -1.01135906954963      3.23394028849227      1.23787535279469
  H   4.91762326673934     -2.30871956253118      0.06041615152598
  H   5.54015118671334     -0.72519196750919      0.04797258537248
  H   2.22093760378609     -2.61257583897375     -0.17739783593489
  H   -0.02403081547763     -2.63497134082264      0.10711625777108
