33
Coordinates from ORCA-job ./opt_b97-3c_parallel
  N   5.18386340424088      0.75486518935399      0.33596787410090
  C   4.06496327965849      0.43474911150817      0.25782111390367
  C   2.72183261264288      0.03251244000089      0.15286734807327
  C   2.48802596145594     -1.35659758738405      0.29658587781319
  N   3.51882212072707     -2.12443741066158      0.76373497379479
  C   1.32909790548108     -2.01889157584636     -0.08118484001727
  C   0.07134524630162     -1.52992968000556     -0.41344440998889
  N   -0.77846279865216     -2.44978689058491     -0.94455315372817
  C   -0.46946527773905     -0.21614259903374     -0.14664344008471
  C   0.35289924002438      0.97572973559686     -0.10370910753119
  C   -0.29370572673954      2.23073659052673      0.01312758008092
  C   -1.65796412479706      2.37567097022377      0.09353977379950
  C   -2.47912829960635      1.25991829860012      0.06658643959516
  C   -3.85743673414808      1.11879083401068      0.19343273374197
  C   -4.13681675984120     -0.26076460379693      0.22318804921300
  N   -5.39668141075368     -0.81515126748854      0.32692929337455
  C   -2.94416340788819     -0.99233929088476      0.07304994681961
  C   -1.87077806266041     -0.07464174958572     -0.02658753030868
  C   1.78117025280257      1.03301915907088     -0.20689219168506
  N   2.32507871321173      2.23537579776089     -0.55148932632189
  H   3.47256835739775     -3.11503176378165      0.61072297214071
  H   4.44817679652488     -1.73954668698919      0.76995612532292
  H   1.42075477271741     -3.09867709903494     -0.13132855455848
  H   -1.63536500215950     -2.11612976811232     -1.35576131127290
  H   -0.38274379235174     -3.27830498200568     -1.34909551554067
  H   0.30419394532874      3.11534780195669      0.16315861809352
  H   -2.08302803911569      3.36329472506835      0.22554576607267
  H   -4.57685154436184      1.91814007732430      0.28515828441362
  H   -6.07916101569668     -0.23335706736748      0.78371463996824
  H   -5.42008192037240     -1.75887750127919      0.67617882878537
  H   -2.89207109945446     -2.06267155948987      0.17874819596064
  H   3.31831668796588      2.30077003238523     -0.68758650035140
  H   1.76964097785655      2.86865138704486     -1.09320700267875
