32
Coordinates from ORCA-job ./opt_b97-3c_parallel
  N   1.39867381804304      3.82066929620301     -0.05371724110363
  C   0.95111035587420      2.74598111195521     -0.07767893446619
  C   0.26378551426642      1.51747197134997     -0.11201857123098
  C   -1.15751983872694      1.55471379109639     -0.10670217810543
  N   -1.81563870387213      2.76056398894627     -0.14759281199672
  C   -1.83473935950040      0.35018307227262     -0.05655520148075
  C   -3.21765331715027      0.04897382969440     -0.02347102272967
  N   -4.23875999718807      0.97364063639530     -0.13662011556072
  C   -3.36750114441636     -1.33079521640741      0.18111649768181
  C   -2.09631139695486     -1.91702727204014      0.22585939500360
  N   -1.85730765789614     -3.25773107883292      0.39812179920354
  C   -1.10817993736610     -0.89348345904510      0.03928402058264
  C   0.28164215365645     -0.96414056713828     -0.08947133663557
  C   0.93012047002396     -2.18461583821303     -0.38108254869368
  C   2.27810718123926     -2.48305052900106     -0.45939452818017
  C   3.38410850627232     -1.69730551443222     -0.21023865814526
  C   3.34316664044698     -0.33939434417427      0.15246075969767
  N   4.50774318686823      0.24599382082010      0.57061715625693
  N   2.31727344766188      0.49961261000941      0.14071839517285
  C   1.01063533642915      0.31460685946899     -0.03435690648430
  H   -1.23489759377930      3.57267468343380     -0.00244684248738
  H   -2.67347066082023      2.79659501993396      0.37936499069947
  H   -4.06930950795741      1.69054782339145     -0.82656044129747
  H   -5.14991253710058      0.56384346038549     -0.26655574816852
  H   -4.30614095945653     -1.85761937773695      0.26750639796833
  H   -0.96229622689877     -3.48846595188358      0.80106300587690
  H   -2.61040098588641     -3.76745432857044      0.83113492770515
  H   0.27658043982900     -2.99136862202055     -0.67891087643570
  H   2.49713330855703     -3.50366527086033     -0.75443331802398
  H   4.35767275511139     -2.16815597855777     -0.26967614556731
  H   4.50979600020263      1.25146761647538      0.57076476002633
  H   5.38157217718767     -0.20572119291839      0.37211580961883
