31
Coordinates from ORCA-job ./opt_b97-3c_parallel
  N   -5.45659950443436     -1.30165822717843     -0.29284143640571
  C   -4.38909331117854     -0.85460721438008     -0.17049813210496
  C   -3.10245116372037     -0.29396988672459     -0.01828734484952
  C   -3.09119194052565      1.08353234571443      0.29546815897875
  N   -4.26178999849310      1.68874971987752      0.58427415552046
  C   -1.95095588404644      1.91210176174796      0.25953595245592
  C   -0.64949470444343      1.58426631040234      0.05894598061183
  C   0.02757630501428      0.34249656327433     -0.03228680217815
  C   -0.60477339235351     -0.95013703472634     -0.00001253404914
  C   0.20216631038698     -2.09674615665941      0.16028644643018
  C   1.57863322404250     -2.04050647189776      0.20741907084475
  C   2.21755113097336     -0.82473406416238      0.04621986171093
  C   3.59309662525830     -0.48511366336876      0.01931803739940
  C   4.65302089901847     -1.39615843225390      0.11460130603381
  N   5.50885035616128     -2.17970963111514      0.19698664537851
  C   3.67939179023944      0.90547370266429     -0.11753150607402
  C   2.38634922802654      1.45683230137431     -0.16673885174347
  C   2.14245240621390      2.82669599150476     -0.32003561712282
  N   1.93466574380099      3.96632923942028     -0.44329630495862
  C   1.44184815874206      0.38638869254581     -0.06937392619914
  C   -2.01031522889587     -1.17736768307874     -0.23272487644312
  N   -2.34545427324114     -2.42153533691643     -0.64185089821095
  H   -4.30076417370769      2.68588797814225      0.68138589321505
  H   -5.13767715258674      1.19824773143628      0.53892869713676
  H   -2.14746971777311      2.96812949533032      0.40085622232607
  H   0.00124487830171      2.44408289888490      0.03895972598812
  H   -0.26398303409416     -3.05427099796497      0.33425669567939
  H   2.15436571077302     -2.94224187948210      0.36928068370226
  H   4.59208023090582      1.47420841570079     -0.18205362490570
  H   -3.30150818648085     -2.65440905107955     -0.84695220691510
  H   -1.64549305828371     -3.01135440523188     -1.04911709875141
