29
Coordinates from ORCA-job ./opt_b97-3c_parallel
  N   -5.10676571115445      0.66242702067509      0.44960355979961
  C   -3.99476457441006      0.34448815502114      0.30115643882326
  C   -2.65518254466500     -0.04239809230589      0.11488872762338
  C   -2.44480735396456     -1.42306127876150     -0.16200838383296
  N   -3.50970008446060     -2.16766043061446     -0.52590033383100
  N   -1.32517353411890     -2.13864791320081     -0.03481247584806
  C   -0.11060614828659     -1.67052082208728      0.14719190641725
  C   0.45250623339551     -0.39190043334044      0.05566156817936
  C   -0.27490784498575      0.85547374950309     -0.08122410600604
  C   0.46427577203332      2.01957280407116     -0.34981301975613
  N   1.79087938367010      2.11957201678649     -0.43263439288259
  C   2.49705582326530      1.01751132684690     -0.20205209474096
  C   3.87623324629474      0.85464208066951     -0.18790637102289
  C   4.12333181425114     -0.51142428347010      0.04883291197468
  N   5.35136783693785     -1.08035280334467      0.18531775551275
  C   2.89472352609200     -1.22183027248503      0.18278543506735
  C   1.86517936204717     -0.30842080454038      0.04817069328825
  C   -1.67619554078463      0.98692660314210      0.16361026457267
  N   -2.14868743559667      2.22890916888833      0.41665881181251
  H   -4.43716792177020     -1.78599557997914     -0.57080788913557
  H   -3.39323666515220     -3.16476151266112     -0.51874399141543
  H   0.60720856579383     -2.46185755624546      0.33560139092676
  H   -0.06033083657476      2.93922607161960     -0.57815794951895
  H   4.61073097990500      1.62856983370323     -0.33840565584142
  H   6.14642190103981     -0.56898110041032     -0.15392410886612
  H   5.42328675524885     -2.07717005482008      0.08479155925414
  H   2.82734117560937     -2.28313225143543      0.36542238157009
  H   -3.12560865420840      2.37385450813112      0.60161403228134
  H   -1.52083310465134      2.94803112634431      0.71831697089472
