31
Coordinates from ORCA-job ./opt_b97-3c_parallel
  N   4.98419410477465      1.77204199279510     -0.32690988370457
  C   3.91563092078758      1.31214895589360     -0.23304423145820
  C   2.63405630059627      0.75500968130403     -0.10964810682862
  C   1.55490681031769      1.67666386418839      0.06307036656943
  N   1.90568176939657      2.99346952903261      0.13120860640256
  N   0.25258394569232      1.47967305135197      0.11946317668261
  C   -0.44372099085226      0.31798304088169      0.06925117409681
  C   0.03413734919814     -1.06106521858022      0.11551428369237
  N   -0.82154183310897     -2.10540578636631      0.18893397628661
  C   -2.13890121544177     -1.94062162604377      0.16002143182100
  C   -2.69969908087887     -0.69026313178518      0.03928107043782
  C   -4.02110115824953     -0.12763024159609     -0.02992863824248
  N   -5.18117850202986     -0.78972259064825     -0.01033997913014
  N   -4.00196491064772      1.22041719599535     -0.10219993090656
  C   -2.69873849590417      1.56901093046910     -0.07776900318064
  N   -2.27322457642286      2.82178455309519     -0.12858858132481
  C   -1.82618354936833      0.42439881052391      0.00029841556924
  C   1.39666120003091     -1.45522753895351      0.07402962398726
  C   1.62762292734408     -2.84936938877215      0.13049397538099
  N   1.98466976115786     -3.95692686202129      0.16525539674346
  C   2.56724761337913     -0.66205703822413     -0.07171709002725
  N   3.73603934674216     -1.32206887484148     -0.18051536645677
  H   2.85853248957880      3.25243871562473      0.31729868915170
  H   1.19499513016805      3.62118098580927      0.45856773270542
  H   -2.72837784403178     -2.84911356178963      0.23626285728467
  H   -6.03553858858451     -0.27749478056291     -0.13782960966551
  H   -5.21163806187393     -1.78991977226886     -0.06132700863531
  H   -1.26908603329675      2.95042679435783     -0.09369681188224
  H   -2.92149472589482      3.58669815558386     -0.18976073191629
  H   3.76119101301014     -2.32586437700182     -0.13306623678454
  H   4.60621733451180     -0.82522255695109     -0.24464522856804
