27
Coordinates from ORCA-job ./opt_b97-3c_parallel
  N   2.71730617928829     -1.69136575305132     -0.89070251696823
  C   2.16592536525900     -0.59775681758126     -0.32142734438328
  C   3.04108089884370      0.46368407741427     -0.06408733569197
  C   2.74676879004574      1.74506458439350      0.34621786628286
  N   1.61615015598729      2.42068688195980      0.37084473760531
  C   0.41421140163314      1.95121370389432      0.01883304968205
  N   -0.48560193025142      2.89818113737516     -0.22856287818702
  C   -0.07117277185928      0.56447075801530     -0.01822813504033
  C   0.75287380013494     -0.61796634481295     -0.00862009391715
  C   0.08922853310097     -1.87626900192122      0.17886269176747
  N   0.83447845226812     -3.07149555876566      0.35883822415513
  N   -1.21656707563294     -2.05721655927861      0.19640005462793
  C   -1.99344905268886     -0.98089148356840      0.03750427323114
  C   -3.38343133149703     -0.84817053917352     -0.02562971103284
  C   -3.61007887206197      0.52491772072908     -0.13160412195470
  N   -2.47193532254206      1.26123291183701     -0.14151990002712
  C   -1.45391079516951      0.35927120576170     -0.04031310086414
  H   3.71458291690080     -1.72866456852631     -0.99878698807797
  H   2.20640546254305     -2.56801997887676     -0.85717245656034
  H   4.09724305076732      0.24315917083351     -0.17043812183579
  H   3.60441077201323      2.33945174930092      0.65308316304628
  H   -1.48792682205671      2.62837965223216     -0.29573148758334
  H   -0.18809072176362      3.84443249125313     -0.05805728767410
  H   1.45610540757195     -3.02020756005684      1.15600855024560
  H   0.16963082226069     -3.81815381503857      0.50963974973446
  H   -4.11610135390155     -1.63648742278947      0.00646693308170
  H   -4.56672588669334      1.02076013144106     -0.21121765596161
