32
Coordinates from ORCA-job ./opt_b97-3c_parallel
  N   5.57087625882963      0.40140245397399      0.11895803491255
  C   4.47510591809481      0.02301440750656      0.01438644921005
  C   3.13030709115663     -0.39101963633550     -0.08555188169444
  C   2.89741019851315     -1.64059905360450     -0.68101886514632
  N   1.86058229380651     -2.41405140755784     -0.56275715240578
  C   0.71114866446593     -2.12205868087987      0.06454357103714
  N   0.12353938022863     -3.19751715414333      0.61163732426763
  C   0.01629450642575     -0.87143300298801      0.06584817722298
  C   0.71488586541848      0.40601773439179      0.07612548582610
  C   2.13308113201237      0.49939137978478      0.39131915337413
  N   2.55379784954898      1.53629959543175      1.12831846975846
  C   -0.03053166742772      1.59562929469699     -0.04314300050260
  N   0.60291268641449      2.85626407343265     -0.08880721914569
  C   -1.44194152962599      1.57344724294414     -0.09123302875764
  C   -2.14517192479115      2.78516386922698     -0.27303095949576
  N   -2.64651730738025      3.82250502546686     -0.42372754895731
  C   -2.13265225200516      0.37108867675360      0.00415501287356
  N   -3.45653765664659      0.19117033036241     -0.05021996555177
  C   -3.61674835255995     -1.15624166041018     -0.04007742153580
  N   -4.86950199906783     -1.67911408103128     -0.05121516336440
  C   -2.39918817431461     -1.86776204750782      0.03821291671615
  C   -1.39401698294878     -0.88819247225713      0.07339958292431
  H   3.72133920993100     -2.06346596062336     -1.24752519222458
  H   -0.65982509675959     -3.09494176570093      1.23082132203406
  H   0.60961289161002     -4.07540055037309      0.56807444066068
  H   3.54202496401048      1.69465410016340      1.24221495083465
  H   1.93372268515776      2.33044044233021      1.23781130555825
  H   1.29968070968943      2.92025136535019     -0.81771295258268
  H   -0.05980801944686      3.60978423015389     -0.20391504414623
  H   -5.59907783610778     -1.04053099117938     -0.31899771491715
  H   -4.98796146757773     -2.62523666535477     -0.36507544440184
  H   -2.31006512704125     -2.93911716243053      0.00209561392908
