30
Coordinates from ORCA-job ./opt_b97-3c_parallel
  N   -5.85304023577297     -0.49525885894755     -0.71356223949593
  C   -4.75006401146252     -0.17276375365854     -0.52904161981155
  C   -3.40223167263545      0.16573260027640     -0.28450856307449
  C   -3.07424118935587      1.51956579924374     -0.39850120859231
  N   -1.98034706372096      2.19427689504707     -0.15387215073947
  C   -0.73568927361871      1.73749805009210      0.07829501622132
  C   0.19908743293869      2.75550516212433      0.33655776802975
  C   1.56001770985485      2.53469717239266      0.37473634758201
  C   2.03754788142644      1.26330184334983      0.12035165048446
  C   3.35328110695138      0.76100318359487     -0.02679615651860
  N   4.51175304937087      1.41672952944811      0.09224334032067
  C   3.24848465527801     -0.63625952661618     -0.35842022815764
  C   4.36400159186624     -1.44091348574191     -0.61901658582445
  N   5.34460508913693     -2.03372205261922     -0.81985054099991
  C   1.90492546940886     -0.98083919528680     -0.38618601348109
  C   1.12045945130031      0.17051746956302     -0.08608093405315
  C   -0.26726707625753      0.34343790569067      0.03126607478635
  C   -1.12633907208435     -0.77836169051883      0.26854072408737
  C   -0.53151421056605     -1.96849484281687      0.73892637219094
  N   -0.16868156186603     -2.99672662713434      1.14858098367513
  C   -2.53392842891204     -0.89286852620236      0.11823569292125
  N   -3.10757361437905     -2.08605777067348      0.34863361779206
  H   -3.90325673752555      2.14621360856190     -0.71721011048872
  H   -0.20389666700625      3.75136411276232      0.43922694216935
  H   2.22800252805543      3.36944024045858      0.55158146456572
  H   4.54672007114166      2.39143608174384      0.32347167941384
  H   5.38518689475920      0.93754015275791     -0.04102902014207
  H   1.54565494154127     -1.96068602526228     -0.64249863359288
  H   -4.10302898876816     -2.19812978802942      0.26978454894488
  H   -2.56037867519488     -2.88739833899514      0.61068490228309
