31
Coordinates from ORCA-job ./opt_b97-3c_parallel
  N   5.57292143202824     -0.23920043427164     -1.29534990271264
  C   4.49824166082115     -0.36935483263517     -0.87349409509497
  C   3.18809055183851     -0.52921472774863     -0.35145779072995
  C   2.79430600507731     -1.82949296055156     -0.01086988452009
  C   1.60297887825894     -2.24959727453373      0.51217117366578
  C   0.39459659253682     -1.54541234099546      0.68950806157773
  N   -0.57306275357241     -2.21129745321676      1.33806228510322
  C   0.08720960815010     -0.20475799350328      0.25705199441899
  C   1.12186877535060      0.83360027905937      0.21401920615159
  C   2.44780900695477      0.63641712921087     -0.14255316737915
  C   0.71333544572953      2.21107073094135      0.35795738681538
  N   1.68311997127889      3.18778527520047      0.50764255144575
  C   -0.61503327338821      2.56824508674853      0.24286092619635
  C   -1.57703656414659      1.59767687459812     -0.00328533414628
  N   -2.89114522177534      1.80389897345119     -0.19681091907872
  C   -3.43323646421732      0.57393019614063     -0.33165517927590
  N   -4.75145920881906      0.41994924513157     -0.56153591359448
  C   -2.48234604351606     -0.47733916064626     -0.18571998994284
  C   -2.77114247605635     -1.81002575546670     -0.45574985838421
  N   -3.05600664030348     -2.92382523044431     -0.66271885263321
  C   -1.22850580620223      0.18465735040271      0.02683462072328
  H   3.54945143129080     -2.59506070134565     -0.13518728330167
  H   1.56849754272292     -3.28999131926141      0.81283466069640
  H   -1.48272932318381     -1.80291739031812      1.45570624270619
  H   -0.51136233683352     -3.20359195268289      1.47773076311822
  H   2.99098532355591      1.54690890471023     -0.35761907986430
  H   1.32475281483500      4.12336264400593      0.59575248780495
  H   2.40109850306873      2.99995263444721      1.18677363758001
  H   -0.92044277092240      3.60318858155571      0.32777523626398
  H   -5.08881963899476     -0.47315368165861     -0.87441088192279
  H   -5.25610436816705      1.23149398207677     -0.87137516058643
