27
Coordinates from ORCA-job ./opt_b97-3c_parallel
  N   4.32546782108379      1.77968380874673      0.07056247587973
  C   3.11553195291440      1.14183192980259      0.03798263800707
  C   1.97677144360487      1.97869621921912      0.00490235349584
  C   0.67104267565845      1.60225240722753     -0.06880864881673
  C   0.05564926592364      0.33549374207830     -0.05225893982640
  C   0.68489576371081     -0.96922740428877      0.03545740449428
  C   -0.15282166407025     -2.09040160440991      0.20236322074962
  N   -1.48417894272570     -2.10206306439952      0.24428373330099
  C   -2.07813985016044     -0.92115245206935      0.08865481222332
  N   -3.39611869920133     -0.66230188693699      0.07706636228038
  C   -3.42014468733347      0.68461571173014     -0.06285654443140
  N   -4.58951942877773      1.36678410108186     -0.08220470443502
  N   -2.22856187777066      1.33854224667024     -0.14046498994032
  C   -1.34685832641295      0.32726772411925     -0.05378916436941
  C   2.09488713691691     -1.18450050826159     -0.09596560537728
  N   2.52742630814679     -2.47630629844082     -0.22536439698731
  C   3.13061852702488     -0.24402170542091     -0.05095426238269
  H   5.14229366601134      1.25640167260541      0.32890473822073
  H   4.34359937990211      2.74716251515950      0.33673617597660
  H   2.17363972648240      3.04434789886174      0.01854147262083
  H   -0.04858471827323      2.41102967938776     -0.11224595186754
  H   0.28934098882898     -3.06190281519748      0.38345363009427
  H   -5.41363608102833      0.82969577441986     -0.28365005393520
  H   -4.55722691875502      2.30127357598617     -0.44786703934108
  H   3.48928194218767     -2.62408613766088     -0.46906384978693
  H   1.89633630837173     -3.15852450122926     -0.60037971836857
  H   4.12510250324036     -0.67419297728071     -0.11777254687777
