27
Coordinates from ORCA-job ./opt_b97-3c_parallel
  N   5.80816138629798     -0.78288853762449      0.00227341476415
  C   4.67306903001973     -0.53458987031701      0.00225098545774
  C   3.30094301290067     -0.22592965340021      0.00166326692968
  C   2.76000652046073      1.09111014950828      0.00079981771366
  C   1.38013196060959      0.96496160488068      0.00023221529710
  C   0.32087270402559      1.89332713893932     -0.00079108741661
  N   0.51909841207000      3.21914077894231     -0.00133414066430
  N   -0.95878637483841      1.50458294854073     -0.00117142058708
  C   -1.29872720201016      0.21541413028907     -0.00063890436705
  C   -2.70982699569316      0.01387853431141     -0.00119904628548
  C   -3.48954639989589      1.20847535908528     -0.00212854056118
  N   -4.21813995530666      2.11177680298424     -0.00278592348444
  C   -3.47129011725694     -1.15792005878076     -0.00108103152535
  C   -3.06234281705086     -2.47340152481602     -0.00035173522225
  C   -1.75627442347696     -2.94832531274386      0.00048482540219
  C   -0.57618258454644     -2.23943633358691      0.00078358185792
  C   -0.29956436204927     -0.86215363355002      0.00034091986528
  C   1.04232232250390     -0.43949901218236      0.00077624223465
  C   2.25686556447182     -1.15682749845577      0.00168250424616
  H   3.34957163263418      1.99343719070429      0.00063709396634
  H   1.43744061558413      3.61900103789875     -0.00213144721219
  H   -0.28287897723594      3.82435169300055     -0.00274033813620
  H   -4.54076402421901     -0.99500906737975     -0.00167471505556
  H   -3.84873178906019     -3.21667159271346     -0.00044577182927
  H   -1.64667373060607     -4.02583277799862      0.00096557038688
  H   0.30984269576425     -2.85993932242332      0.00146583536488
  H   2.39477176760339     -2.22450784771234      0.00225041596041
