29
Coordinates from ORCA-job ./opt_b97-3c_parallel
  N   -5.24685018706484     -1.09675781319441      0.22094902569592
  C   -4.22209359524337     -0.54998556962934      0.16876398697828
  C   -2.99132377326970      0.11583832201255      0.10444875952101
  C   -2.79574535999772      1.51340693526248      0.09116440574773
  C   -1.43107506896359      1.80582781795245      0.00104151992374
  C   -0.89385424850465      3.09635383013272     -0.02094416245005
  N   -0.41907128936177      4.16047854929640     -0.04286909581353
  C   -0.71916870148295      0.55913039170293     -0.03500802952361
  C   -1.71851211288309     -0.48681158815254      0.02158309830773
  N   -1.43668139182032     -1.78727479278354     -0.07282730457634
  C   -0.16831278223768     -2.14636883658272     -0.13518997960107
  N   0.06840637293352     -3.50906125681543     -0.23354725925729
  C   0.93258927962398     -1.22053355291673     -0.04533429611042
  C   2.20475149394131     -1.75653467854455      0.16434537507458
  C   3.46841702124098     -1.20820603855734      0.22947896551336
  C   3.85961666030873      0.11920939860475      0.03726274147041
  N   5.18013562396248      0.41145458270822      0.05634090508782
  C   2.96915561118948      1.20191444538806     -0.17690793388356
  C   1.61006841184765      1.21714861366669     -0.19398644114121
  C   0.62537476368976      0.19666933739398     -0.08434387834113
  H   -3.58088744295191      2.24912708936388      0.14377841166568
  H   -0.80043626153987     -4.01112073935019     -0.33635024139505
  H   0.73973620143314     -3.78847644270274     -0.93010654832688
  H   2.19984786169448     -2.82327071354260      0.34835757465061
  H   4.26765943215885     -1.90952526643345      0.44010176211688
  H   5.49671595556598      1.36291383651756      0.03805910385868
  H   5.85899680898738     -0.28691291228239      0.29597270812624
  H   3.44091983802459      2.16924685221685     -0.30860053226265
  H   1.19697319541898      2.20725120616838     -0.31894933565601
