31
Coordinates from ORCA-job ./opt_b97-3c_parallel
  N   -2.48205685647796      3.51137552175526      0.08312275743227
  C   -1.77982455497384      2.58797462726852      0.05098931260331
  C   -0.86330489586159      1.50773667480378      0.00337256633925
  C   0.49887034006515      1.80112654280698      0.02307238639352
  C   1.48634807549810      0.81536791588933     -0.00492099536833
  C   2.85252308211095      1.28953707680501     -0.03835747652914
  N   3.08379441846086      2.51165641159102     -0.56440928768787
  N   3.93043192113577      0.73667204631418      0.50119558548416
  C   4.11241143945670     -0.54992332404053      0.72295690178179
  C   3.37998417350845     -1.63047001280376      0.28143479841632
  C   2.07095962239080     -1.63818399758537     -0.21763209961335
  N   1.65100613919239     -2.79549510390331     -0.77055277351353
  C   1.10281267155915     -0.57660490272493     -0.06120784595156
  C   -0.27603184925951     -0.88761890893069     -0.04247945627853
  C   -0.98820149372393     -2.10838106687352      0.01969332632704
  C   -2.35906763297008     -1.82390073676575      0.05659639864611
  N   -3.37766844372673     -2.72467174716684      0.09314565116417
  C   -2.55111674585297     -0.41220938255912     -0.00382864887350
  C   -3.81606370128171      0.17674682087754      0.03926947032810
  N   -4.91727068046796      0.55406572941474      0.08403015509356
  C   -1.27716000094577      0.17803141880295     -0.03601534845527
  H   0.78346987894348      2.83542044014541      0.12997755215639
  H   2.42903939172000      2.94668301800847     -1.18534553626258
  H   4.02798126130887      2.85368111250409     -0.53839667049521
  H   5.03793424166587     -0.77750970893962      1.24383771420003
  H   3.87103853907314     -2.59411758706603      0.35059061140100
  H   2.32935152691299     -3.49234757563099     -1.01764378761209
  H   0.77095085724875     -2.81783226114139     -1.25766745665036
  H   -0.58857906131243     -3.09806302366459      0.15556869136509
  H   -3.17637431779766     -3.64423305814789      0.44278629592653
  H   -4.28584339332746     -2.37270167206379      0.34784945846819
