32
Coordinates from ORCA-job ./opt_b97-3c_parallel
  N   -5.94760213306649      0.47351891097910     -0.47478892500762
  C   -4.88966597896292      0.02795272143691     -0.28792623610292
  C   -3.58151072146050     -0.47341723776646     -0.07390706057800
  C   -3.51782860652292     -1.79799078611436      0.32668223427806
  C   -2.40962642552630     -2.61401023042654      0.47479108483296
  C   -1.09470630401134     -2.27119777333268      0.27083169421193
  C   -0.48367268417031     -1.02796649561855      0.05777871620229
  C   -1.12079386996826      0.29172885805105      0.03178846230180
  C   -2.51023000164907      0.46139223761809     -0.31411381708102
  N   -2.88366259590720      1.59472970863132     -0.92216198465066
  C   -0.29366360226354      1.43472430358386      0.16640868665268
  N   -0.84886374975895      2.71809286122223      0.31143259593362
  C   1.11586917148156      1.33994814403371      0.13097423988282
  C   1.87428205341129      2.51820659682919      0.31123606663684
  N   2.43298859897307      3.52479633263093      0.46959477247986
  C   1.73729900888972      0.10460861790646     -0.04833377846097
  C   3.06199261420847     -0.33788535233067     -0.12895330806759
  C   4.26516524099568      0.36690584058991     -0.16428183653101
  N   5.31525290157350      0.86821014626410     -0.20947579865604
  C   2.95719909620370     -1.76817966533250     -0.17764682182292
  N   3.99083525448119     -2.62059314428221     -0.24038756058986
  N   1.68318649094394     -2.20173844884533     -0.12643182795063
  C   0.92214613673362     -1.08712954364897     -0.05862365907420
  H   -4.47989550378093     -2.26866002108741      0.48469423158054
  H   -2.60846916999655     -3.64685998199793      0.72681053616968
  H   -0.38155946750626     -3.08368714194125      0.31845823520441
  H   -2.22850285944409      2.36657833665278     -0.97020848806092
  H   -3.85620419865720      1.77944570206765     -1.10352695656364
  H   -0.15007491486627      3.43562410725746      0.44123375351613
  H   -1.53177646814198      2.77586163791453      1.05293120544446
  H   3.80196298042673     -3.59240801486663     -0.40459468434129
  H   4.91355595803277     -2.27625790288026     -0.43518856058702
