21
Coordinates from ORCA-job ./opt_b97-3c_parallel
  N   4.22924463751579     -2.16487886740159     -0.13423225684082
  C   3.38619826767394     -1.36957880624840     -0.08541206283255
  C   2.37320861600930     -0.37203794384224     -0.02904981346449
  C   2.83960949102382      0.96259163442892      0.11534163421858
  N   2.20127187739865      2.10531379752704      0.08634860639007
  C   0.88137291193514      2.28623896816630     -0.03705239502318
  C   -0.20076267380086      1.41796130227698     -0.01017116834755
  C   -1.48803036038269      2.02986554759786     -0.03127165152520
  N   -2.64986205538006      1.40726741733225     -0.01451974693329
  C   -2.59315106208600      0.06805661566847      0.01775409602002
  N   -3.62155506725501     -0.78404451795530      0.02385782297663
  C   -3.00031619600500     -1.99320641214660      0.03440877743484
  N   -1.65219648020277     -2.01025276093535      0.02981516780750
  C   -1.34936101303378     -0.69563047586876      0.02224351252664
  C   -0.12140966403080     -0.04253474584021      0.00786762545877
  C   1.05534993514026     -0.79761076995104     -0.04703511174813
  H   3.91102460857788      1.05767212466943      0.26572978781269
  H   0.61991625142285      3.33566361819218     -0.13924612503138
  H   -1.52802179832049      3.11327964286868     -0.05575585812995
  H   -3.56986924513220     -2.91052991035476      0.04509189256369
  H   0.89119228953211     -1.86751718138386     -0.08968402073289
