30
Coordinates from ORCA-job ./opt_b97-3c_parallel
  N   -4.55136193589603      3.15472118646437     -0.00061901374840
  C   -3.73297600416824      2.33051202555972     -0.00024807055059
  C   -2.79319618108001      1.26693013472258      0.00021876047752
  C   -1.45610493230387      1.64526429294664     -0.00017993088132
  C   -0.24816148256976      0.94260590516628      0.00002834220240
  C   0.91464721656472      1.73411328860950     -0.00058516504146
  C   2.19583801949490      1.19594918990075     -0.00051431084950
  C   3.29638597733481      2.09252543045565     -0.00121266067341
  N   4.15687111618022      2.86963562829474     -0.00185709434610
  C   2.36327339633745     -0.19199524261788      0.00021309349406
  C   3.49031323715519     -1.02323450419892      0.00044785217342
  C   4.84167537845010     -0.65263624097331      0.00000663419355
  N   5.97438814502394     -0.39115647644867     -0.00031996665060
  C   3.01910583018590     -2.36872977810062      0.00124595732875
  C   1.63623049810034     -2.38641084758922      0.00149646140244
  C   1.17598938081845     -1.05113360246334      0.00086689378106
  C   -0.11862181942379     -0.50299683016788      0.00078653772539
  C   -1.20496975222260     -1.39339589673016      0.00141383851446
  C   -2.57674362385275     -1.23640695220361      0.00152806629331
  C   -3.32856006052563     -2.44204944430460      0.00224798237609
  N   -3.99455698131180     -3.39335435690117      0.00281225692863
  C   -3.35730240872155     -0.03661256851931      0.00099413027915
  N   -4.69166785955998     -0.15639682875604      0.00120600704641
  H   -1.32932536402669      2.72023579600037     -0.00079426083562
  H   0.81075489147076      2.80872185696326     -0.00115638103280
  H   3.66399421662137     -3.23272312139041      0.00158511707978
  H   1.03676361929184     -3.28163003911647      0.00206208562797
  H   -0.90973659525700     -2.43268456031188      0.00191289964142
  H   -5.13391120755454     -1.05969868856007      0.00180558001752
  H   -5.28502079065579      0.65595851006968      0.00090359452646
