26
Coordinates from ORCA-job ./opt_b97-3c_parallel
  N   -0.12991505847141     -3.32326117773135     -0.21059348385179
  C   0.28975170137140     -1.99818804483932     -0.09769522890270
  N   1.59322820068245     -1.82204152037179     -0.04614222954551
  C   2.03799781975353     -0.55979170775192      0.06022981940255
  C   3.33612580483904     -0.05617991790463      0.12794710621014
  C   3.19226553484284      1.33788260399609      0.11036413673496
  N   1.90763968427915      1.74300657468397      0.03887007276571
  C   1.16129373466359      0.59031602031526      0.01977985691072
  C   -0.22054377366224      0.42632326701676     -0.01824405996692
  C   -1.06790324072087      1.60809032936300     -0.09656231715655
  N   -0.42897036448285      2.77692550906895     -0.16763444819422
  C   -2.47835290126164      1.66168874289292     -0.13243962042594
  C   -3.41188086664611      0.67333193221448      0.03968216061658
  C   -3.21319328223139     -0.68732712988333      0.24795711341005
  C   -2.01870367163064     -1.36980544715839      0.21576764797419
  C   -0.69997972277795     -0.94192216585392      0.00729266153512
  H   0.67300391510673     -3.92076227395353     -0.33701789545463
  H   -0.81968987503423     -3.49294014514186     -0.92515300545169
  H   4.25192822045508     -0.62117831324035      0.16599593291877
  H   3.98513870536430      2.07124591754348      0.14464914516295
  H   -0.95623889170202      3.63125269635120     -0.20617714761486
  H   0.61356698859693      2.77920344425567     -0.10789244097537
  H   -2.87710056964145      2.66215272949553     -0.26101737469865
  H   -4.44342269006084      1.00654942189376      0.03210807310699
  H   -4.09853746826662     -1.28026636822600      0.43747941783279
  H   -2.10921642566473     -2.43072483233466      0.40517862335731
