28
Coordinates from ORCA-job ./opt_b97-3c_parallel
  N   -5.19876019892831     -1.11012248736363      0.09955324565450
  C   -4.20596743796678     -0.50107400650560      0.09312362534473
  C   -2.99942230022708      0.20585099265975      0.08175429996754
  C   -2.82829154769742      1.61097467512621      0.16850279847950
  C   -1.48036298916816      1.92445995541091      0.11022289813748
  C   -0.74135573164231      0.71150710410318      0.00205610975846
  C   -1.71394089437486     -0.36557139816023     -0.00640045878134
  C   -1.28691140508514     -1.68302292369966     -0.05690734333842
  C   0.05829723327328     -1.96377178977209     -0.09757460487663
  C   1.05132585393259     -0.95404259211267     -0.08034009660276
  C   2.42376225510318     -1.38816366906471     -0.08886896758259
  N   2.68229900954874     -2.66584074308688     -0.47449170920473
  C   3.50755421271859     -0.67737255664408      0.44351440022709
  C   3.56345069329889      0.66452675823824      0.74097305394978
  N   2.76928039929203      1.64370657825157      0.34620661864325
  C   1.58039413794749      1.51348180109380     -0.21749594611218
  N   1.18947439318809      2.56618074628675     -0.95002715519612
  C   0.63315737406893      0.41827082471693     -0.05330434872083
  H   -3.63527043392759      2.31912652301178      0.27232716577095
  H   -1.08227334382598      2.91862145449695      0.22570277153045
  H   -2.00861411639638     -2.48946273889997     -0.03232196770453
  H   0.35541164335915     -2.99886098388053     -0.02954978054384
  H   3.63959074077818     -2.95130106107551     -0.56725556676615
  H   2.02920239712028     -3.14319067354768     -1.06668329674142
  H   4.40720375559092     -1.24679029961159      0.64663762411568
  H   4.43833795663157      1.00349657864381      1.28751856943149
  H   0.29337076991885      2.58236850624258     -1.40111891682715
  H   1.79600551706926      3.36459226654227     -1.00678452451229
