25
Coordinates from ORCA-job ./opt_b97-3c_parallel
  N   1.75079977336451     -3.56395914684115      0.01265035194236
  C   1.95848991817779     -2.41715073121188      0.01354332839078
  C   2.20665197689077     -1.04161628368326      0.01470494735619
  C   3.50543055528033     -0.46585197194090      0.06015508674625
  C   3.42111887188385      0.91910496238704      0.06985199698511
  C   2.06197880982347      1.25991056449572      0.03504592227603
  N   1.52202380010496      2.47885462191716      0.02852225538805
  C   0.20156374650375      2.55089183850753     -0.00801399094026
  C   -0.68238832256521      1.45093713883401     -0.03749035543843
  C   -2.05370671475599      1.75380376950565     -0.06147138553897
  C   -3.16220944568096      0.95223943701449     -0.04859308321587
  C   -3.19710505631736     -0.45605279532630     -0.00660488058813
  N   -4.39226685783739     -1.06240110782562      0.13512542024800
  N   -2.18204114045837     -1.33134122409096     -0.13222689712738
  C   -0.90177387371250     -1.07284565799825     -0.17022454007237
  C   -0.12830442764785      0.11602058777328     -0.05032261527619
  C   1.26888431554467      0.02006815726192     -0.00461873638766
  H   4.41319830333555     -1.04790397862182      0.08615806401166
  H   4.23883143932291      1.61910085171774      0.10151410202270
  H   -0.22264709988193      3.54962638529249     -0.01114646368779
  H   -2.26947991726866      2.81669186298912     -0.07716189756857
  H   -4.12215666912947      1.45526664126423     -0.04961449343035
  H   -4.41384985616720     -2.06656859497674      0.14953364821252
  H   -5.24067533893663     -0.55099255723994      0.28703288213934
  H   -0.31173269467305     -1.97079061860357     -0.30730863754702
