26
Coordinates from ORCA-job ./opt_b97-3c_parallel
  N   -5.48748319910248     -1.77701661166845      0.00346261276712
  C   -4.48773729627849     -1.18769586173480      0.00286859757652
  C   -3.26931945929946     -0.45411808881167      0.00209311147645
  C   -3.38449523649603      0.94989224283888      0.00046149739484
  C   -2.40548578553913      1.89692724552587     -0.00074334216729
  C   -0.99370604850374      1.78220999784938     -0.00084429522697
  N   -0.30829912976842      2.92069618303845     -0.00251061628348
  C   -0.21271612126243      0.55701359934851      0.00074565549106
  C   -0.75227303838600     -0.78008399008178      0.00252867169741
  C   0.16820995404206     -1.87839433956248      0.00397770678516
  N   1.47767615590234     -1.80389687611207      0.00386795269843
  C   1.98638323324751     -0.56518419142264      0.00219666905606
  C   3.32395443807811     -0.12614954157000      0.00155673495803
  C   4.49000502379936     -0.90188852169602      0.00247833022401
  N   5.46937152575917     -1.52694879141136      0.00311010384404
  C   3.24765758585053      1.28484597233835     -0.00035371648034
  N   1.98704551475836      1.74061949952836     -0.00093518063216
  C   1.18116256023915      0.63257534808878      0.00060049072596
  C   -2.09471123744324     -1.18288580230624      0.00300042694196
  H   -4.39802274644815      1.32903266140114      0.00010647330621
  H   -2.76222634906032      2.92031105307283     -0.00192774234650
  H   0.73090206867115      2.87733456917428     -0.00250693992613
  H   -0.79190124782305      3.80204269606858     -0.00359845852686
  H   -0.25131053740524     -2.87812379989205      0.00531070900462
  H   4.08445807472459      1.96575010973390     -0.00131597156107
  H   -2.23292305265611     -2.25659014353776      0.00432336870297
