28
Coordinates from ORCA-job ./opt_b97-3c_parallel
  N   5.43369558097590      0.26217233461895     -0.03174497251527
  C   4.27195411204876      0.32099686984618     -0.00830680460961
  C   2.85871344081697      0.32612726547536      0.01147735927884
  C   2.23492158048591      1.57105775562576     -0.01491633393792
  C   0.90437471976322      1.92005945856144     -0.01999393451166
  C   -0.26975492625428      1.14903975396758     -0.01043667005348
  N   -1.38888504414180      1.88072786568186     -0.01936971662847
  C   -2.59442787099965      1.29099407268963     -0.02422822761100
  N   -3.64499543641781      2.13947105176765     -0.05633642926868
  C   -2.75139142928618     -0.10132054006554     -0.02679691361104
  C   -3.86598085904516     -0.94629329398948     -0.03662675364372
  C   -3.39313408256455     -2.27246640375720     -0.02003704777884
  C   -2.00131040758568     -2.26530157757439      0.00028155522928
  C   -1.56625751713791     -0.91755536720704     -0.00379151033834
  C   -0.28782633934345     -0.32906664855301      0.00796239198097
  C   0.83644611825161     -1.15471323346704      0.04561222117535
  C   2.21282589002059     -0.94143870924631      0.04985980027687
  N   3.00920860417909     -2.05091007506995      0.14042462732478
  H   2.92035903166963      2.40855720743911     -0.03993232384682
  H   0.70104202969919      2.98190598704367     -0.04044882789830
  H   -3.45218205468754      3.11309937288989      0.09947365992761
  H   -4.56908240777217      1.80481979653141      0.14083515376275
  H   -4.90494043169551     -0.65376591607828     -0.06485531483801
  H   -4.01387010478446     -3.15531449590820     -0.02514273740662
  H   -1.37958875928181     -3.14670123946357      0.01570758561237
  H   0.58002528778800     -2.20699372846377      0.07954365533134
  H   2.60627953545243     -2.94374843002767     -0.07594932614491
  H   3.99086010244671     -1.96440714376703     -0.05871606855749
