28
Coordinates from ORCA-job ./opt_b97-3c_parallel
  N   4.07914080341069      3.32893486917584      0.00028261018769
  C   3.50546960609052      2.31994024881904     -0.02735923530965
  C   2.83024261097886      1.07158522048355     -0.05908714445593
  C   3.62768313336495     -0.06073440108006     -0.36268992230514
  N   3.34824490900613     -1.32224881987391     -0.24761012499487
  C   2.18568159545087     -1.90398137792775      0.09885525418259
  N   2.36399886939247     -3.15975772054137      0.55366492838057
  C   0.85637568859359     -1.41107703971381     -0.06509405707597
  C   -0.18588141527005     -2.33445729884284     -0.21622604482581
  C   -1.52268013316092     -1.96674228635544     -0.25687085887876
  C   -1.86519866277200     -0.63550718893554     -0.09067681533180
  C   -3.07261363683103      0.08360553371774     -0.05650823820072
  C   -4.37909363668961     -0.38494564673271     -0.17823092132499
  N   -5.48492694784483     -0.73822266273378     -0.27943648620078
  C   -2.67964721157742      1.44723070721277      0.11917876323079
  N   -3.50953696913919      2.49706296674926      0.24859264470852
  N   -1.33968017996310      1.59990347933535      0.18856176222553
  C   -0.82517495792526      0.36049601170014      0.06927008161899
  C   0.54339872776406      0.00659874468372      0.03648152155981
  C   1.45621794411756      1.06310177860878      0.11279425238189
  H   4.63382650978372      0.14772625685028     -0.71441568855247
  H   3.30564935309330     -3.50671619991312      0.60586195067942
  H   1.64435231092044     -3.63835229256033      1.06095824165590
  H   0.05743495399464     -3.37725215025733     -0.36152091417965
  H   -2.28473340112322     -2.71833928201155     -0.41451358061691
  H   -4.47999510862523      2.39285006129130      0.01397986589911
  H   -3.11361112775372      3.41803786460113      0.19425176501138
  H   0.98908358681379      2.02906052855064      0.25737441193149
