32
Coordinates from ORCA-job ./opt_b97-3c_parallel
  N   5.43385880642307     -0.41057389797937     -0.04564470480324
  C   4.27432334490087     -0.28267736271894     -0.05438085126013
  C   2.88109970968336     -0.11693796885191     -0.05444183963182
  C   2.39442559516960      1.21024684895252     -0.11098931073021
  N   3.31203257216356      2.20202408722796     -0.24518171108603
  C   1.05921962380808      1.62493752582016     -0.04967999646652
  C   -0.13346818516730      0.92129082488988      0.03011088222520
  C   -1.34610804890372      1.68082315515552      0.10295079382574
  C   -1.28444294881451      3.08440607324408      0.15636430272260
  N   -1.29561998240356      4.24857333342587      0.19778943821247
  C   -2.64273430978247      1.10744323322593      0.07881172054572
  N   -3.74222352027052      1.89180247085150      0.18040276432808
  C   -2.72057508714587     -0.28425546934580     -0.00497942925343
  C   -3.77011032446868     -1.21156613028833     -0.07211006057767
  N   -3.33593815975467     -2.48734965604593     -0.15372737186311
  C   -1.98633349051901     -2.41837980742701     -0.13284140072511
  N   -1.20754202911619     -3.49897424478922     -0.19046480187244
  C   -1.52018017411587     -1.05970404431960     -0.04428670603356
  C   -0.23292399291860     -0.54481990166516      0.00712981891253
  N   0.77185885163484     -1.44554762277795      0.03985383409457
  C   2.08197594381642     -1.29414346297310      0.05289016703866
  N   2.76327238447388     -2.47601135614977      0.13403123255457
  H   4.29383528401210      2.00665184880196     -0.16066238477138
  H   3.02918695194803      3.15645490213425     -0.12646213448386
  H   0.94589498395519      2.70099626676104     -0.08157915139903
  H   -3.64992296860120      2.88619379973959      0.06226712464591
  H   -4.63785667034513      1.50321540562075     -0.04644810385046
  H   -4.83258069588926     -1.01263618394194     -0.05972116514932
  H   -1.61619803406874     -4.40011944356812     -0.36242880805490
  H   -0.21371203193829     -3.33523593975064     -0.24742957619744
  H   2.23230861713302     -3.26279705968913      0.45967918589473
  H   3.74170810730162     -2.47371040026917      0.36366873350892
