26
Coordinates from ORCA-job ./opt_b97-3c_parallel
  N   -4.32512191593750     -1.01515357194543     -0.24935694337582
  C   -3.07419842506993     -0.47628669541615     -0.16154842290258
  C   -1.84841450855583     -1.15871770920455     -0.15513945031599
  C   -0.85946395048740     -0.15835414436134     -0.03355975177705
  C   -1.62644073662827      1.08838998651558      0.04946434618597
  C   -0.97458416097213      2.31089562187113      0.18151777355645
  C   0.39771808550674      2.33852335272777      0.19062764246994
  C   1.19513317616568      1.17363026554076      0.07915017629985
  C   2.57244256926279      1.40668322204805     -0.00771985946647
  C   3.62211253032091      0.54268837408529     -0.24411417216703
  C   3.54239738968409     -0.83848313327471     -0.36877602358188
  N   2.54993446878968     -1.65975199851369     -0.10765441994641
  C   1.28572232880934     -1.35268902853697      0.20875702442620
  N   0.61898039447513     -2.40859431873714      0.71005079213845
  C   0.54342831210553     -0.12843863861525      0.02774479087013
  N   -2.94560110593209      0.87314488686635     -0.01351136132251
  H   -4.40832521094047     -1.91212289061904     -0.69399242609981
  H   -5.04300330513021     -0.35687511500816     -0.50226100764046
  H   -1.72289121392074     -2.21131097092878     -0.34452282613812
  H   -1.55512541920999      3.22075195484761      0.25345579137342
  H   0.90783002706476      3.29037352907218      0.24689343400120
  H   2.84847408115140      2.45276688626328      0.06170643724537
  H   4.60322998690728      0.97897655244041     -0.38024585652854
  H   4.45100765764321     -1.34653770726134     -0.68294348742548
  H   -0.28520182134917     -2.28882815367678      1.13364282429067
  H   1.14752909694713     -3.24462486947915      0.88392595993042
