32
Coordinates from ORCA-job ./opt_b97-3c_parallel
  N   5.17597144563356     -1.62395617364680      0.78300922071904
  C   4.18781286030356     -1.06463812841396      0.52766757471480
  C   3.02996518387955     -0.32447612794888      0.19627871922366
  C   1.83500998152952     -1.01954513351048      0.15665707642613
  C   0.50880810174258     -0.64935794628653     -0.07202797201753
  C   -0.40551625344689     -1.75682872501264     -0.17646429541323
  N   0.08544478348890     -3.03431414303360     -0.33850653010268
  C   -1.79131440911887     -1.57205935596976     -0.06030712693293
  C   -2.65769568947458     -2.67886502110497     -0.17962228409051
  N   -3.30308592224632     -3.63860744281881     -0.29197804007503
  C   -2.28636256438103     -0.27399751983241      0.10406881536033
  N   -3.54992796797980      0.14303457060843      0.20137005107563
  C   -3.41802741227204      1.49866929837396      0.20928468206355
  N   -4.49761761678229      2.29572078147231      0.34602096481184
  N   -2.16522933012542      1.98583516897614      0.11711200833721
  C   -1.38736884123052      0.85970001098875      0.05800600411964
  C   -0.00879306124246      0.71196996775171     -0.06114661051846
  C   0.82142828458461      1.89399383631046     -0.20456927248506
  N   0.16978004932805      3.06384166725745     -0.27115266882771
  C   2.21642383255399      1.97717477744171     -0.33394342397372
  C   3.22603060553211      1.05620129219457     -0.12413158215980
  N   4.50923624943730      1.48248461194247     -0.24443381594184
  H   1.95735113328136     -2.06899757760741      0.38655541809029
  H   -0.61479490617174     -3.75507924173155     -0.41223410595696
  H   0.81910245837097     -3.15204553050366     -1.01483643708572
  H   -5.39268871640769      1.87037199498862      0.18505778014264
  H   -4.39998299768327      3.26350154246265      0.10006928797379
  H   0.68749722022165      3.92210241808800     -0.31578844786754
  H   -0.85190538042371      3.07609113074926     -0.14614283440581
  H   2.57069382875289      2.97806554097842     -0.55759096465819
  H   5.26595725249347      0.88290675020646      0.03514053195112
  H   4.70658189715200      2.46483195542962     -0.27870755129636
