26
Coordinates from ORCA-job ./opt_b97-3c_parallel
  N   1.13992518199031      4.29920952084692     -0.43932160367889
  C   0.74228925142483      3.21650649144068     -0.30680556242018
  C   0.16567478720449      1.93090720000013     -0.17610966710602
  C   -1.22729934718369      1.81134738076225     -0.21218499355155
  C   -1.79064695972484      0.58562187661875      0.01217914178489
  C   -3.13013675125532      0.12438888235186      0.13402120669194
  N   -4.26825215455713      0.82173555984751      0.05411560470031
  N   -3.17118537798462     -1.21398558366849      0.39023556449783
  C   -1.90895748949741     -1.64159612817748      0.40805863980709
  C   -0.96772639759126     -0.59124173348490      0.18337293743463
  C   0.42477274363001     -0.52677488292308      0.07685742580319
  C   1.23353108382831     -1.69273616189804     -0.16014272605002
  C   0.57549348316595     -2.91166882612631     -0.45698723749783
  N   0.09452824944585     -3.93994635024285     -0.70718273350457
  C   2.62438010059264     -1.80886810485880     -0.21514784857263
  C   3.60454715783322     -0.87360887551051      0.04671992258334
  C   3.37600759817317      0.44583614395700      0.42752675629350
  N   2.27822087120380      1.15702072005522      0.37175105794712
  C   1.01561254977893      0.81872575923868      0.07215702129388
  H   -1.81972521278649      2.70319372365884     -0.36962535028563
  H   -5.13899807361013      0.32260825318216      0.09669062187961
  H   -4.28344015087104      1.78578981315240     -0.21896810933937
  H   -1.70415610293501     -2.67865616859833      0.60710960250873
  H   2.97733751885960     -2.80126128239040     -0.46558662151337
  H   4.63297759401159     -1.20729208906538      0.01789643783973
  H   4.23399449365422      1.00018403433220      0.79996283865426
