37
Coordinates from ORCA-job ./opt_b97-3c_parallel
  N   5.32707205123876      2.83850981047214     -0.20739472368566
  C   4.32302104964071      2.25923867697014     -0.11081624695236
  C   3.13145464397231      1.50296468592711     -0.03220430897714
  C   2.01939006876328      2.15194399245473      0.47790235367408
  C   0.69286013897393      1.76287632906920      0.59506612025213
  C   -0.09976112425271      2.69283641464409      1.29914351116887
  N   -0.75948980955834      3.47628806415667      1.85474369761741
  C   0.06881693558101      0.51476076897111      0.23236266805250
  C   0.84506425738203     -0.71574888835501      0.16182482543166
  C   2.17394380939022     -0.81832307256681     -0.35030350541844
  C   2.51315497725534     -2.06363640586621     -0.92878700206985
  N   2.87661733317274     -3.01410983448753     -1.49376525103877
  C   3.20354834731467      0.15249127216020     -0.48748951184374
  N   4.35616249736606     -0.22788477693813     -1.06092026314640
  C   0.18403487308941     -1.91734381544828      0.52464490517659
  C   0.89670359648897     -3.04741812761931      0.97105478039259
  N   1.36043352888024     -4.01319656509786      1.42457808103329
  C   -1.23213759227567     -2.02591511731130      0.52833885119075
  N   -1.84680513333727     -3.21509035733269      0.82671873570661
  C   -1.94988147572943     -0.90507269508818      0.14967042013492
  C   -3.31035507282231     -0.76518743798081     -0.21502536745767
  N   -4.23314434088176     -1.74581920792395     -0.28484188112857
  C   -3.55104332439827      0.59934454624961     -0.49848627814223
  C   -4.75858480521628      1.13189460501935     -0.94821104301599
  N   -5.76819637368766      1.57298523634287     -1.32635028599676
  C   -2.34671171336485      1.32447407518452     -0.31974565940367
  N   -2.23659851774898      2.61793496042318     -0.63806283778390
  C   -1.30858954053709      0.38178593296843      0.07103438028445
  H   2.22157372508513      3.15006670418764      0.84288976754583
  H   5.12070979972414      0.41841657448282     -1.15127969445425
  H   4.50289654340707     -1.17852050968489     -1.35426561187072
  H   -2.69279604852544     -3.14439592401038      1.36827781281010
  H   -1.23908299974494     -3.95002427886640      1.15709645797819
  H   -3.90573006303095     -2.68818175588751     -0.42230452006761
  H   -5.10892822684833     -1.52917294831917     -0.73259647177758
  H   -1.55140141369919      3.19643649459456     -0.17948323085464
  H   -3.08517759556723      3.09931642120652     -0.89143805966420
