32
Coordinates from ORCA-job ./opt_b97-3c_parallel
  N   -5.09970598867140      1.65532114888809     -0.35552723058046
  C   -4.08524361194243      1.08849594783274     -0.26840227690458
  C   -2.86467446711323      0.39804509681616     -0.15652556130287
  C   -2.91140955231956     -0.99121294817361     -0.44295854449128
  N   -4.03275886198475     -1.46923413160410     -1.04454150558894
  C   -1.95517211251407     -1.92066390030696     -0.04610610730261
  C   -0.66233225209971     -1.72449826949178      0.41318184762128
  N   -0.06518304438626     -2.77788149773604      1.00528572508199
  C   0.16183890736600     -0.54272501473033      0.20742418590920
  C   -0.36863490134172      0.78477227755241      0.22851985774269
  C   0.53025324457768      1.88028606150910      0.15605605604196
  C   1.89114218066884      1.72245498845460      0.06385916039979
  C   2.42982705748468      0.44772779023106      0.02714141163749
  C   3.75651336641175     -0.00168084084005     -0.13595148169551
  C   4.88744925412612      0.81619863329585     -0.22620906234228
  N   5.81593217666489      1.51581222977728     -0.29653287773952
  C   3.71060981246753     -1.41293395054847     -0.22499976851209
  C   2.40117769054950     -1.85057487419548     -0.09374884938308
  C   1.55771088707601     -0.71226547134234      0.07163755763956
  C   -1.76474538353404      1.13391676312140      0.34273825718888
  N   -2.04463111246304      2.35776236498379      0.83978504666541
  H   -4.85062975656101     -0.88947437865769     -1.12005173728119
  H   -4.19386028146121     -2.45888680077162     -1.06062579607272
  H   -2.28571411651727     -2.95331294078479     -0.06449188092225
  H   0.86092998896175     -2.68312334363566      1.38342261809241
  H   -0.59294014861599     -3.59534861887935      1.24632635153329
  H   0.13641369886874      2.87976086213489      0.05885751098169
  H   2.53394443062677      2.58883017249436     -0.02411232923646
  H   4.57018410223979     -2.04443369549908     -0.38603164950395
  H   2.09835348603810     -2.87592069301159     -0.21873770234002
  H   -1.34319692060256      2.86892853430798      1.33863871863068
  H   -2.99262955369981      2.68212699930922      0.91191404653365
