30
Coordinates from ORCA-job ./opt_b97-3c_parallel
  N   0.53889146184384      4.29598401748311     -0.09541438147182
  C   0.41127148872742      3.14003031941607     -0.07426800215585
  C   0.45369157351698      1.73026547616254     -0.07117388701232
  C   1.73955973486811      1.11614709438748     -0.13563102913695
  N   2.86551685046295      1.88033062337283     -0.28014813644313
  C   1.78339196743906     -0.26259851298638     -0.03793471222339
  C   2.83404569679389     -1.21111317266709     -0.05203766080884
  N   4.16493616691009     -0.97029043739712     -0.25165882907783
  N   2.38923339387062     -2.46024056665139      0.19351436749298
  C   1.04810851399244     -2.36562751208077      0.32069416815843
  N   0.31213863959645     -3.47977731747711      0.57023630521202
  C   0.58077777917070     -1.02727321902515      0.15280301914074
  C   -0.69613246490036     -0.46173471944503      0.09093605142214
  C   -1.83983246832614     -1.24857517007973     -0.11460204782621
  C   -3.18129393344105     -0.86655758695244     -0.18776407702120
  N   -4.08669519343991     -1.81020384980536     -0.58161655741413
  N   -3.76560798497307      0.29376669861716      0.16306410349444
  C   -3.08702002386126      1.38201223870682      0.47922052723256
  N   -1.82536046827768      1.75365582429721      0.37352446039026
  C   -0.74296906313943      1.00596354549441      0.11177876284114
  H   3.69104015946054      1.53739580564630      0.18297232570481
  H   2.73745764404255      2.87545697385944     -0.17395291646259
  H   4.70380380706920     -1.81211435555641     -0.38416342051854
  H   4.38170097360102     -0.25849521475787     -0.93144004640929
  H   -0.56849766019505     -3.34629808628451      1.03976306524776
  H   0.84883201386307     -4.26464082229965      0.90345954844769
  H   -1.65106272145712     -2.28212143030571     -0.37451930489292
  H   -3.78059358991985     -2.59850893028347     -1.12164170379111
  H   -5.01392432416759     -1.46810425336150     -0.76361730486615
  H   -3.72366465283071      2.17685300107351      0.86082883554710
