32
Coordinates from ORCA-job ./opt_b97-3c_parallel
  N   -4.62474800780896      2.35338145669657     -0.68832896510838
  C   -3.70877786148933      1.64946672114715     -0.53307674599211
  C   -2.61822798572213      0.80245028532634     -0.34318051087562
  C   -2.69232844213575     -0.56224392804693      0.05181296838824
  N   -3.85184722480881     -1.23411117727198      0.29902563201170
  C   -1.38476478433547     -1.06390581661805      0.12968449251230
  C   -0.87334889306095     -2.33633157162859      0.38568212979851
  N   -1.68340844606763     -3.40124686147652      0.71661578275562
  N   0.42700177674043     -2.60027724361458      0.29419042598811
  C   1.30288882082538     -1.64469209663530     -0.05351379875878
  N   2.46943456362672     -2.11589375605701     -0.49156443155957
  C   3.55729453484260     -1.44850100366429     -0.83440665067418
  C   3.97545404276276     -0.15695700989223     -0.60687348812228
  C   3.24220199702106      0.87531734901560     -0.00421048631981
  N   3.91379309709488      2.02530806071662      0.26520262745391
  C   1.85318239991499      0.82364947672020      0.27962384441737
  C   1.36537369576527      1.92708820593459      0.99144334785095
  N   1.00637680436444      2.88852054059516      1.54979629353242
  C   0.91011288594276     -0.21821411414261     -0.03253392218408
  C   -0.45662662118452      0.01364621108799     -0.11818983235526
  C   -1.25829401127945      1.18023642541512     -0.42707080939161
  N   -0.85640069527144      2.39062307436910     -0.85810484509372
  H   -4.68433801742498     -0.66703015044190      0.33589663841998
  H   -3.81646055421705     -1.92004538335695      1.03602908753973
  H   -2.55804725185732     -3.44677683198835      0.21782434856050
  H   -1.17874212367247     -4.27415988051183      0.67724383751246
  H   4.27840357154010     -2.06924930800558     -1.36296083456462
  H   4.98569735054085      0.08123101768660     -0.91647943704467
  H   4.91579654203979      1.99894315118408      0.29886481532467
  H   3.47244410276099      2.75339582781176      0.80011004325994
  H   -1.58232505079400      3.07562308785418     -0.99784850904078
  H   -0.00226553335686      2.77981548648837     -0.49557132663942
