32
Coordinates from ORCA-job ./opt_b97-3c_parallel
  N   5.14221822914149      1.97110682877042      0.76609373802522
  C   4.09495484697967      1.53970797191814      0.50198376618688
  C   2.84670070990593      0.94983698875159      0.19332291016898
  C   1.81135198853841      1.81950712542546     -0.12790929736280
  C   0.44735157423625      1.62425220635725     -0.28664449209181
  C   -0.31436872377023      2.82722823019022     -0.38724039267007
  N   -1.61905193363336      2.91811002228082     -0.34282065083199
  C   -2.29229758702320      1.77016252958443     -0.13430295542856
  C   -3.65816896000419      1.61993269199633      0.02159543371063
  C   -3.91560868145668      0.25390377123823      0.25806120296167
  N   -5.12178480357214     -0.30289847405212      0.48483327067544
  C   -2.69327756971171     -0.48430905854295      0.20372658106575
  C   -2.63314254991815     -1.82215337204755      0.58425129905705
  N   -2.64192196600414     -2.94830960126211      0.89204270476942
  C   -1.64295142644448      0.45011862590478     -0.04953499952328
  C   -0.26628593286996      0.37147600988589     -0.23153366653064
  C   0.38379420918806     -0.89341106569444     -0.52882517311601
  N   -0.37661987615170     -1.80130134331530     -1.14348766720871
  C   1.71740195284350     -1.26636512429936     -0.23305952346006
  C   2.02752633543902     -2.62537707547627     -0.44940413956990
  N   2.28756925972469     -3.74614175508144     -0.62616640282453
  C   2.80567039889733     -0.47150869547593      0.22188653977131
  N   3.91729743733235     -1.11291440624443      0.61918263870106
  H   2.11780266056234      2.85719733253544     -0.17361053383307
  H   0.23247020721477      3.76052553752730     -0.47572497751666
  H   -4.38597997350872      2.41349883322673     -0.01190498223855
  H   -5.89491596330750      0.28604752445985      0.73378745957601
  H   -5.16499809482331     -1.25234467397625      0.81423488984876
  H   -0.08172836831035     -2.75691494700216     -1.25524984201778
  H   -1.34054368947014     -1.59742526320213     -1.33792357145170
  H   4.75606381472404     -0.59907506914376      0.82795335247207
  H   3.98302426965072     -2.11485011333547      0.57888300908553
