31
Coordinates from ORCA-job ./opt_b97-3c_parallel
  N   3.64797736975270     -3.19051545911307     -0.28729192993693
  C   2.74830212491003     -2.45902554972122     -0.22197764881889
  C   1.66486537160233     -1.55046674410303     -0.13893755369017
  C   0.36344313548042     -2.01929814867533     -0.10735633445650
  C   -0.75522172014916     -1.16786495368936     -0.03099121361173
  C   -1.97856423845815     -1.85161131105486      0.11533222027323
  C   -3.27368821138432     -1.43904127479266      0.25978582370646
  C   -3.76890201341375     -0.13085102345121      0.14848410508077
  N   -5.13151477038629      0.02864053425319      0.25613691854980
  C   -3.01900659977224      0.99324511262376     -0.17239135686380
  C   -1.64266240825130      1.18971014057634     -0.30190505336202
  N   -1.29476362152974      2.45261197269421     -0.68609549555566
  C   -0.55368468011985      0.27403700243822     -0.05011660310149
  C   0.76714320951619      0.75605400890458      0.04200208777550
  C   1.33822687772053      2.04250124408865      0.19859565498451
  C   2.73764848686748      1.90142884624061      0.22983936273823
  N   3.63633218317574      2.93223595832160      0.35697142766917
  C   3.08604631955283      0.54360539646525      0.05756317690812
  C   1.90648229779798     -0.17398245634063     -0.02926636486869
  H   0.19756649829057     -3.08619531722190     -0.11986869366784
  H   -1.85815792318655     -2.92733310192745      0.16681338538312
  H   -4.00906291980475     -2.21695606512939      0.42802885250037
  H   -5.47562542577398      0.94869769915427      0.46654365514398
  H   -5.64049318765834     -0.70554672839868      0.71518766692676
  H   -3.60885080076225      1.88772316554829     -0.34737231494076
  H   -2.00548733699526      3.00963732101123     -1.12593295296443
  H   -0.36194576794932      2.57893553105246     -1.05036364382167
  H   0.83062734372804      2.96102822792363      0.43999410811655
  H   3.28448839900362      3.77580818099695      0.77678478274227
  H   4.54571490449802      2.67883084218759      0.70405707099575
  H   4.08417866009914      0.13683125423810      0.02241024276574
