28
Coordinates from ORCA-job ./opt_b97-3c_parallel
  N   -5.57654026361059      0.97925767853884      0.02197604804773
  C   -4.42987708091331      0.77287252548081      0.02194707312127
  C   -3.05913396156071      0.45091420754786      0.01675654830871
  C   -2.15054958530091      1.51331918771387      0.06549498426182
  N   -0.84123843596393      1.56756299149288      0.06637119064709
  C   0.02205885579143      0.53349665002734      0.02581521900379
  C   -0.29216975196671     -0.92138573565354     -0.00656772861304
  C   0.76786558878634     -1.83367337245474      0.01238756624755
  C   2.11770001982701     -1.47423166765261      0.04277542222431
  N   3.10052013446425     -2.43327997180428      0.08606198688280
  C   2.42871323202901     -0.11384710292535     -0.01319435116107
  C   3.61696935271627      0.63524961195887     -0.07160755302936
  N   4.90068914319734      0.19325630613641     -0.16255033786030
  N   3.36690816643759      1.98590678898973     -0.02255535721426
  C   2.04529397575265      2.11521853086175      0.03099598135701
  C   1.37837716297071      0.85333277860425      0.02517864726999
  N   -1.50797223494447     -1.49354733892958     -0.04331121757733
  C   -2.70561546145592     -0.94015783637440     -0.04196784013802
  N   -3.71992594999707     -1.82938056882922     -0.09801757524400
  H   -2.62135064794309      2.49238036590509      0.10964081112473
  H   0.49279433325037     -2.87959372085323      0.02925831874760
  H   2.79072264466485     -3.36308441485015      0.31540157028128
  H   3.93843119936485     -2.17750483252881      0.58297894247954
  H   5.05628868879403     -0.65088139370053     -0.68908727043190
  H   5.56661316966102      0.92379956115490     -0.36048720812980
  H   1.57484735948990      3.08470133461848      0.06445517107579
  H   -3.48500030694867     -2.80328890964836     -0.14652169444950
  H   -4.68231988518401     -1.54523774912137     -0.11984014273160
