27
Coordinates from ORCA-job ./opt_b97-3c_parallel
  N   -5.58172572574049     -1.23509268174482      0.26334697064469
  C   -4.50264192470378     -0.81409184235781      0.19367980493667
  C   -3.19205174637045     -0.27599868021613      0.10559274009702
  C   -3.04907034828403      1.10108746669496      0.41663248411274
  N   -2.05498785605625      1.87769437931175      0.12465302813675
  C   -0.87739527076921      1.56847842424909     -0.42160178653105
  N   -0.36676424604049      2.48447324778194     -1.23273021296482
  C   -0.10602614925680      0.37490909727997     -0.12877889204381
  C   -0.75281522489446     -0.91237580919586     -0.16678792737399
  C   -2.14402464666375     -1.13511114279970     -0.16980920929693
  C   0.04483074506570     -2.07910457488139     -0.18389189405271
  C   1.42156721240304     -2.04179808210289     -0.06271409140937
  C   2.16879818344688     -3.24707964239650     -0.07396607071799
  N   2.74562659110624     -4.25233917515490     -0.08980445660633
  C   2.05776947225345     -0.79817961520810      0.08966844676089
  N   3.36798898500740     -0.56070976464172      0.24014728217237
  C   3.48237688586095      0.77958698817008      0.32376860160587
  C   2.25482083912617      1.45565937008479      0.20112635726259
  C   2.06263973910634      2.83422449591436      0.31636820276959
  N   1.87529596909425      3.98202897562046      0.38023184318656
  C   1.27434239537249      0.42498084090343      0.04445033447888
  H   -3.87949639654972      1.58004920063146      0.92462048421138
  H   0.55806533217024      2.38515809018554     -1.61148042522063
  H   -0.78569652829888      3.39958739298095     -1.26472969153602
  H   -2.43175514701159     -2.16971414519588     -0.30515138542157
  H   -0.44545637917351     -3.03765782425573     -0.26132558987486
  H   4.44187363860037      1.24646193284261      0.48579805297412
