35
Coordinates from ORCA-job ./opt_b97-3c_parallel
  N   5.42512881291478     -2.67582108428356      0.07203326016083
  C   4.41394346565460     -2.09797731369132      0.09431465696568
  C   3.21743946515404     -1.35274751387259      0.10888242122377
  C   2.04356181767877     -2.06028562561390      0.37941760485304
  C   0.73122061852478     -1.67482601632362      0.37146296380377
  C   0.12391385583590     -0.42005124136949      0.12411553769976
  C   0.84647430149108      0.85124942721429      0.09609492789789
  C   0.10040069574209      2.02883266206547      0.17468316077374
  C   -1.29526090823590      2.08378476470237      0.17173345478510
  N   -1.94275679272635      3.30182562280973      0.23308067541428
  C   -1.99847431663862      0.88658644275245      0.10933514411881
  C   -3.37797312706424      0.60197265111501      0.08609220529269
  N   -4.40259547311814      1.49131667950813      0.21666262900096
  C   -3.53515379989003     -0.79320698091986     -0.13566068941534
  C   -4.74799713577266     -1.46649210781862     -0.26820929176547
  N   -5.76324520894959     -2.02823618206345     -0.37998002193239
  C   -2.24973280472769     -1.38129768714556     -0.19798237699003
  N   -2.04030160982351     -2.69853481163441     -0.41691434172139
  C   -1.26987588251177     -0.34912448667921      0.00663483343452
  C   2.27107931158668      0.99341114233607     -0.06918803858554
  C   2.72159775626919      2.31965993767624     -0.24907664090184
  N   3.15183449441706      3.39100937042991     -0.40512799767073
  C   3.32995713867267      0.04649653680599     -0.12528717575189
  N   4.56976554170492      0.50554944095987     -0.40583556882656
  H   2.20737898610427     -3.10274614697091      0.62301284741070
  H   0.05088154748933     -2.45241930565352      0.68350523897629
  H   0.62668595808781      2.97177869801831      0.19001006502405
  H   -2.77391623030240      3.37058365911679     -0.33306800520625
  H   -1.34438937950886      4.10131748290192      0.10111782843913
  H   -5.31992096189680      1.08893331095813      0.32848371956232
  H   -4.23822574493022      2.26966008146520      0.83481109072047
  H   -2.82189384433728     -3.23328201638652     -0.76051514298815
  H   -1.14467497550370     -2.98226452452291     -0.77674971960977
  H   5.35875814257498     -0.11448738122202     -0.35964794342693
  H   4.75383544183746      1.48967886403125     -0.48420008796298
