30
Coordinates from ORCA-job ./opt_b97-3c_parallel
  N   3.29958029693911      3.36427232934861     -0.21653219425057
  C   2.83323484161503      2.29919751252228     -0.16037339584615
  C   2.29055856835068      0.99319907870035     -0.09132230131382
  C   3.25341587864430     -0.01365118548860     -0.26040080910477
  C   3.16829053393080     -1.37684232294555     -0.19576197945918
  C   2.02176979195698     -2.13649968670102      0.12618904645528
  N   2.22771868909140     -3.49264139449867      0.28438247153819
  C   0.72576040284787     -1.66869447820632      0.24483627596250
  C   0.15032867079754     -0.38261345165286      0.07018864323817
  C   0.86828274537546      0.88711254712791      0.07171359803347
  C   0.13206228199970      2.07512113905397      0.22368696818413
  C   -1.25280126668854      2.12002355960175      0.27614366501443
  C   -1.95840717173054      0.94819399773878      0.13866332594970
  C   -3.33758386505155      0.61001366914845      0.03121999841133
  N   -4.40255010873242      1.43240839781712      0.16310837426828
  N   -3.51504972974326     -0.70667782828311     -0.20416380622026
  C   -2.28256513619357     -1.25520971202210     -0.23406759900148
  N   -2.15012019324446     -2.58257962444717     -0.48378583668914
  C   -1.24797059668133     -0.28960930376043     -0.00691326394139
  H   4.24787144162751      0.36685899867709     -0.45931690688705
  H   4.08577789422901     -1.92818898901719     -0.35797379153134
  H   3.15393605204004     -3.77387407006903      0.55583771800693
  H   1.50682710917686     -4.00531006233238      0.76262436202083
  H   0.01751456715123     -2.41921337688465      0.57125089920589
  H   0.67722059100265      3.00365359966002      0.29644391395257
  H   -1.74470847016647      3.07675844015994      0.40502107375283
  H   -5.28566105580090      1.07460548048983     -0.15788248988495
  H   -4.26465454928405      2.42057984020761      0.05580009275919
  H   -1.28038389162782     -2.87937107112200     -0.89731434246421
  H   -2.97334948843166     -3.01126270512216     -0.87676070595984
