33
Coordinates from ORCA-job ./opt_b97-3c_parallel
  N   -3.75216094726749     -2.68606063274794     -0.98386796148408
  C   -3.13963421195853     -1.75754780759844     -0.63812159146579
  C   -2.41765778142193     -0.62584342328469     -0.20922362991345
  C   -3.18080377385250      0.35436530670126      0.48059799990029
  N   -4.43057197923830      0.01084296734438      0.87846753057118
  C   -2.76913851324536      1.66522156402325      0.74117147657303
  C   -1.59195161762127      2.27819540267386      0.38943071605171
  C   -0.37118975793704      1.77741436123764     -0.06937428057856
  C   0.67157012731150      2.74011330837938     -0.27680352192645
  N   0.33850937022009      4.08594872999362     -0.39396273868581
  C   2.00158936497381      2.35942240272459     -0.26852684325939
  C   2.33767401950687      1.03294361189431     -0.05134398010783
  N   3.58093151257452      0.52235792744022      0.05374404359373
  C   3.41106040919803     -0.80490273734139      0.20782464918932
  N   4.46720389875523     -1.63066344251926      0.35911199777517
  C   2.04192311162410     -1.20739859996694      0.16847521725501
  C   1.61921547083161     -2.49463034697623      0.48131118090412
  N   1.31280095393839     -3.59423928993824      0.72831285605263
  C   1.30414379578924      0.00709532897146      0.00214186698363
  C   -0.03945005633596      0.36340598165389     -0.12212593430236
  C   -1.02658255204191     -0.63155457920908     -0.48323767052583
  N   -0.56492563267244     -1.67440712896568     -1.18746869040628
  H   -4.83289736095682     -0.86864951208527      0.60529859767766
  H   -5.07114338642898      0.72782645463285      1.16271479490500
  H   -3.49791778338049      2.29185213983902      1.24102254749025
  H   -1.57345875106007      3.33961173033116      0.60324497453763
  H   -0.39592203810376      4.28899199142329     -1.05163258494056
  H   1.13123043826076      4.68717071809379     -0.54499057230886
  H   2.78888370485023      3.08833908269348     -0.41265695274666
  H   4.30422577696368     -2.56107220814507      0.70187354785301
  H   5.34040082176140     -1.20248001732959      0.61130079419546
  H   0.41650257358110     -1.74018636087429     -1.38817336259441
  H   -1.10626355661758     -2.51357056506933     -1.30658032836245
