29
Coordinates from ORCA-job ./opt_b97-3c_parallel
  N   5.65850930797081     -1.73458363149375     -0.03331757081756
  C   4.54867415184445     -1.39194413463658     -0.04630763282452
  C   3.18689209601551     -1.00187649914806     -0.06518681214340
  C   2.24797353654341     -1.99166226561364     -0.44784938058396
  N   0.95125835654738     -1.98028949956839     -0.40960255000722
  C   0.08126463702128     -0.98598323459971     -0.11855650190145
  C   0.35575335305532      0.45919677519785     -0.08675926829461
  C   1.64883183304924      0.96832907060676      0.25301241657873
  C   1.72818721225198      2.29048198568437      0.76776386513927
  N   1.85224520431982      3.33154616785781      1.26779761274596
  C   2.87775080683563      0.30898982462969      0.26687561686692
  C   -0.72067314905011      1.34401120858067     -0.29236181954339
  C   -0.53300029019221      2.68580256906235     -0.68194590430117
  N   -0.54548503023170      3.77608450254583     -1.08706627659384
  C   -2.09162990072996      0.92227026811527     -0.19903737048730
  N   -3.08801901583953      1.81223505764056     -0.39681112214072
  C   -2.32451332605156     -0.40790795980213      0.11962215429203
  C   -3.48700975218717     -1.19028924736027      0.28329199717555
  N   -4.77542908720263     -0.77625490140136      0.40285468762280
  N   -3.19299939408015     -2.52599825918497      0.29014762260950
  C   -1.87242363375885     -2.62562547083893      0.14853323207866
  C   -1.24653338953483     -1.35233362702154      0.06151331317609
  H   2.67593068686706     -2.92333715202914     -0.80782706510474
  H   3.71482809372760      0.92322810123749      0.56941020497474
  H   -2.85313117110658      2.72274095344483     -0.76002787094377
  H   -3.99291864662788      1.46234675757935     -0.65983518311566
  H   -5.42236612225008     -1.51430288063369      0.63401296431215
  H   -4.94251839731348      0.08016048451055      0.90535802765063
  H   -1.38195156310587     -3.58503064366248      0.11990965657976
