31
Coordinates from ORCA-job ./opt_b97-3c_parallel
  N   -3.78498293778909     -2.67706518870499      0.43874631239999
  C   -2.93675085638750     -1.88660171373055      0.33391192534809
  C   -1.98544564633528     -0.85646330132437      0.21584159027007
  C   -2.47491531124436      0.47952632757735      0.27416055787638
  N   -3.78398259165452      0.70479935968972      0.53971590846066
  C   -1.56705926444082      1.50376328980752      0.03756120129477
  C   -1.77655096047060      2.87588869752069     -0.19160486873864
  C   -0.56684094756465      3.47141274697331     -0.50742718026485
  C   0.45447191530075      2.50114628369829     -0.45697014109220
  N   1.72988421353615      2.75065884062137     -0.84306299779529
  C   -0.15723254811252      1.22670438616114     -0.11000060387331
  C   0.34786038694955     -0.06913708391606     -0.00598792016696
  C   1.73597914969489     -0.31986082757614      0.25912876480647
  C   2.42773464949927      0.66384368445455      0.97272700419157
  N   3.06352994727262      1.46068683819631      1.54456115920762
  C   2.54202903779197     -1.45146092063972     -0.10380927897387
  N   3.88527509388753     -1.33368188175636      0.03080984767052
  N   2.17384177001235     -2.63204842725159     -0.59246179613913
  C   0.92075155452295     -3.06553248821723     -0.63745439782936
  C   -0.29060071349344     -2.49050517325173     -0.31782270565170
  C   -0.62786030528874     -1.15961747055124     -0.02357843333830
  H   -4.16192277947747      1.62132214444087      0.39329291364751
  H   -4.43682289643819     -0.05738150728119      0.47533227033633
  H   -2.72216624263606      3.39549173269378     -0.14616484749364
  H   -0.41304980754383      4.51000500310141     -0.75571523036546
  H   1.92404686507881      3.71280334457756     -1.06711236756475
  H   2.48744039281006      2.31003351826553     -0.34353919580713
  H   4.41713148296292     -2.17763421018380     -0.08128954235444
  H   4.30580818393206     -0.55908344683291      0.51071977598358
  H   0.85153946547168     -4.09677963135009     -0.97259780051886
  H   -1.12769545834665     -3.17147482371121     -0.39540141862539
