27
Coordinates from ORCA-job ./opt_b97-3c_parallel
  N   0.74860688403601     -3.96440876957199      0.10074911333777
  C   0.52460070099244     -2.82304398056454      0.05089521323203
  C   0.14813293445643     -1.46792571518528      0.00145508220916
  C   -1.25119391901970     -1.19961532101539      0.02315296691595
  N   -2.14741749526241     -2.21458446767233      0.07930286669653
  C   -1.65205886129668      0.12892654502235     -0.04239686477910
  C   -2.90261154368830      0.76438259225544     -0.06011022244527
  N   -4.15063261122762      0.18592036991424     -0.12457107384736
  N   -2.76858724088150      2.11711800073431      0.02084110670145
  C   -1.45602873877804      2.37344846969364      0.06244234085240
  C   -0.67918443188270      1.19022422618550      0.01148044701477
  C   0.69956037887717      0.95136080008296      0.00559323194447
  C   1.59529567717093      2.03980391234627      0.04692120583822
  C   2.97194850291112      2.11808510902384      0.03296542302617
  N   3.93025425117176      1.19050957413745     -0.03243821713933
  C   3.66352388338292     -0.10728297231352     -0.08150918667541
  C   2.47970392313726     -0.83256035934940     -0.07294491771417
  C   1.13065699630336     -0.44423255434428     -0.02847052755828
  H   -3.06032735840769     -2.00304963086245      0.44558024536248
  H   -1.80558138094904     -3.13934782925443      0.28591078583798
  H   -4.87826543855286      0.87971177086511     -0.21439380379386
  H   -4.24889752378583     -0.53803573614695     -0.82045940559389
  H   -1.10956509088843      3.39392397858158      0.11859018666707
  H   1.11496040743501      3.00861783254800      0.09553181443210
  H   3.36526572357072      3.12989019466302      0.07787979121925
  H   4.55712045393972     -0.72357401692264     -0.13425485310351
  H   2.64206652553591     -1.90254204045055     -0.11109150923769
