29
Coordinates from ORCA-job ./opt_b97-3c_parallel
  N   -5.07171832970692     -1.28696838751039     -0.61154883613720
  C   -3.99622858424718     -0.89590880240419     -0.40134712157756
  C   -2.71763146489108     -0.34729845898486     -0.15636332733065
  C   -1.70686568884887     -1.23164773300982      0.17473285871920
  C   -0.34104435618025     -1.04464880550562      0.37826141835623
  C   0.30234381337212     -2.18264887185701      0.90251204125877
  N   0.83878577367496     -3.12565355241418      1.32898569942759
  C   0.46433099798215      0.13105154279021      0.16256013995372
  C   -0.11402846210562      1.47584846565765      0.29308079995230
  C   -1.46973447188930      1.80613591870669      0.14517867069336
  C   -2.61428423148539      1.08027589252848     -0.15510571904178
  N   -3.74087431448686      1.78094052756696     -0.44395183947931
  N   0.65955650745528      2.56165358236820      0.51868123765294
  C   1.98191980877372      2.45644791680564      0.44542861436568
  C   2.61510598834944      1.29108552262019      0.08275997026744
  C   3.96028280970148      1.00309394495438     -0.22649038969042
  C   4.05448273689565     -0.32252950461950     -0.60670071135434
  C   2.77931689219808     -0.92976674361046     -0.51884599075490
  N   2.53102410816932     -2.18388299771165     -0.94697440140095
  C   1.83438240077789      0.08586021879375     -0.07202844367287
  H   -2.03547269638267     -2.25537418841638      0.29838224557472
  H   -1.61064538684171      2.87849846412735      0.20385225284527
  H   -4.63110344011609      1.31767921780523     -0.49628420500764
  H   -3.75480576657770      2.77374597629956     -0.30458001030988
  H   2.54549909621507      3.36204040787243      0.64546915893260
  H   4.77546651289315      1.70878336782448     -0.18214946864721
  H   4.94824904296298     -0.83388995914443     -0.92948265757976
  H   1.80828477365828     -2.73079547443156     -0.50268059661727
  H   3.33688091398140     -2.72629474189976     -1.21069997729872
