27
Coordinates from ORCA-job ./opt_b97-3c_parallel
  N   3.74352349550389     -2.94216404198320      0.30629070603169
  C   3.06926702235865     -2.00060696959411      0.22565530749054
  C   2.25291212765596     -0.83915195363418      0.12463511145360
  C   2.92698501059440      0.39243804448079      0.10546835237088
  C   2.38628599371058      1.63970576439788     -0.02533940524572
  C   1.04584853173296      2.06638987701842     -0.08604306786796
  N   0.89728510398826      3.41734855268351     -0.26504505956614
  C   -0.14608429214059      1.29486554762202      0.08985435511798
  C   -1.34622122656150      1.99534104588763      0.28651018324065
  C   -2.59374598139858      1.38503964842718      0.30408152867992
  C   -2.70703504087883      0.03276605711834      0.07376163410951
  C   -3.80594317055337     -0.83662089093872     -0.00102464782145
  C   -3.30519119731841     -2.12268745671158     -0.22075926868658
  C   -1.90185504759107     -2.08871265365690     -0.27424953664298
  C   -1.48657374882707     -0.76003129008819     -0.09749778158467
  C   -0.20394984033290     -0.16415556374065     -0.01578329677809
  C   0.88748971826375     -1.04606988412618      0.02914643744053
  H   4.00603058652928      0.34358379652060      0.16117552360496
  H   3.11399929495907      2.44082264435298     -0.09322015388419
  H   0.04671094970621      3.74562471523606     -0.68523845889603
  H   1.71304379834616      3.93581839143265     -0.53699904431905
  H   -1.31262715822041      3.05151941203865      0.50488177585217
  H   -3.47405256781675      1.98799145500980      0.49192236613506
  H   -4.84353897078057     -0.55709083528497      0.09096657937355
  H   -3.90245718222646     -3.01474198704025     -0.33733080495445
  H   -1.27738625818258     -2.95029404889131     -0.45000901966793
  H   0.60453185987979     -2.08834040953615      0.03026671371413
