30
Coordinates from ORCA-job ./opt_b97-3c_parallel
  N   5.97150709290900     -2.15027271157464     -0.38168845205309
  C   4.99196801423263     -1.53189185915333     -0.29309526298391
  C   3.80758766368409     -0.78095088685292     -0.18551876937075
  C   3.73561538397687      0.63558609455841     -0.10269094229784
  C   2.38690661815101      0.98450738351181     -0.01378325288130
  C   1.75840166715726      2.21394762383953      0.13254386842511
  C   0.37883645106801      2.27998025948452      0.20972034217350
  C   -0.23506083546815      3.54657775162176      0.32588374957102
  N   -0.76532867212301      4.57711909497774      0.41820756617684
  C   -0.45308457295863      1.09918546031106      0.12131366835337
  C   -1.80798772307198      1.28688508488148      0.01882821108649
  C   -2.88812203141384      0.38580363561854     -0.14797629317261
  N   -4.08822676617244      0.96500083929301     -0.36509441140198
  C   -2.82210158670354     -1.01499432648602     -0.08590890107169
  C   -4.02783474263753     -1.71882237336418     -0.24561681267372
  N   -5.03486091073002     -2.29024193001002     -0.37433675056179
  C   -1.64600450138345     -1.77798648988958      0.21528276234413
  N   -1.82788012852371     -3.08236864945714      0.51747135888557
  N   -0.38133414389650     -1.40956054982130      0.20040080700160
  C   0.21067520941169     -0.22521215583720      0.08320114671557
  C   1.60769186673512     -0.22676385209301     -0.03816308159233
  C   2.50921030854301     -1.30696180865098     -0.13685225101500
  H   4.57952457417800      1.30594128582774     -0.10152382131411
  H   2.33328601914808      3.12875776518392      0.18095730937548
  H   -2.12028473072546      2.32368107283182      0.01950465087105
  H   -4.92376845139876      0.41942379364314     -0.48080911060629
  H   -4.17127382136877      1.96129165379010     -0.43596714057412
  H   -1.00863492510070     -3.65507862035630      0.60592735440928
  H   -2.73136898133543     -3.51908088297107      0.51123565234068
  H   2.25035250701725     -2.35071736905694     -0.17426988385919
