28
Coordinates from ORCA-job ./opt_b97-3c_parallel
  N   2.47705267531712      3.00782778846494      1.48502928339060
  C   1.62233039506346      2.39990996908877      0.98574655986986
  C   0.50067982448270      1.70917700749164      0.47156162278235
  C   -0.67849634701029      2.44492539929752      0.29839401411728
  C   -1.81719015986713      1.81975513685537     -0.14411540058528
  C   -3.10235530051626      2.31518574710464     -0.44027730072626
  C   -3.91657712703495      1.22760887135081     -0.77563745269188
  C   -3.17971897579129      0.04767097550893     -0.66429197115622
  C   -1.85240151332542      0.37777399379746     -0.27535737377975
  C   -0.73471353671872     -0.39867277331616      0.04761950399023
  C   -0.84596306614037     -1.77086420299598      0.39956463507222
  C   -2.12664769931151     -2.33005655645415      0.63601711890934
  N   -3.13363857139899     -2.86648352471479      0.85524208184571
  C   0.18498516178562     -2.68535632823313      0.68017370787374
  N   1.45842025254305     -2.67309680024410      0.38684894534087
  C   2.13226123598259     -1.66424075569656     -0.17072476126426
  N   3.28546666498700     -2.03660287682645     -0.74873897066750
  C   1.79923144241290     -0.27124822676348     -0.11728245009184
  C   2.85450555923629      0.56678882592101     -0.54916526836442
  N   3.76866609055605      1.11078906149153     -1.01966459942047
  C   0.55231465258086      0.31818792038238      0.18720759303126
  H   -0.66321241395040      3.50711999414875      0.50077328865884
  H   -3.39783614752393      3.35220731875078     -0.40894292132083
  H   -4.95017299678346      1.28485488500614     -1.07716322471420
  H   -3.56026500431378     -0.93462209457137     -0.87824626757878
  H   -0.13956327573918     -3.59981867178565      1.16597597742516
  H   3.94243130607240     -1.36824568675614     -1.11148996987196
  H   3.56867207250520     -2.99406335800316     -0.64136256877487
