23
Coordinates from ORCA-job ./opt_b97-3c_parallel
  N   5.18193359933258     -1.62505809908378     -0.03026354413134
  C   4.19817727576045     -1.01031406488464     -0.02165755741975
  C   2.99775812672767     -0.24697840627783     -0.01205306639739
  C   3.14689214227227      1.13924450205812      0.15080329679248
  N   2.25802595795484      2.10384970018244      0.00427119167627
  C   0.95486729288033      1.99129300875250     -0.15274426413584
  C   0.07892187954379      0.89511109504202     -0.01177276272206
  C   0.47799944836683     -0.51403037483571     -0.02580300959876
  C   1.79635541403223     -0.95821201268349     -0.07985146709422
  C   -0.51463720534404     -1.51626337677340     -0.02178706873602
  C   -1.87468034723817     -1.23759651093138      0.02433495866734
  C   -2.81420628040126     -2.29846212906065      0.04236982927310
  N   -3.56001050578224     -3.18610622169928      0.05748111957693
  C   -2.28491726794131      0.10578144387270      0.04545774896817
  N   -3.50374623080099      0.64748704107414      0.05703640850018
  C   -3.23008345371915      1.98369623307600      0.04633109834696
  N   -1.93918161042680      2.34956641099023      0.02976553415687
  C   -1.29047033236427      1.16006647131583      0.02328974002340
  H   4.14608368147202      1.48524082966683      0.39390828113367
  H   0.45381162328803      2.92591428126721     -0.38193984832176
  H   1.91471224519038     -2.03265341569088     -0.14040076492815
  H   -0.20098182526982     -2.54904045099475     -0.04869670525116
  H   -4.02489723733339      2.71409020721780      0.05410103662107
