32
Coordinates from ORCA-job ./opt_b97-3c_parallel
  N   2.89437603755412      3.42872631204100     -0.07801742814002
  C   2.49359125795583      2.33348320123150     -0.04443589412772
  C   2.06527302932039      0.99530506075110     -0.01095567915132
  C   3.11398829358050      0.03158705393871     -0.07359139543829
  N   4.38476339442866      0.50050028154929     -0.14617664151438
  N   3.06648855464537     -1.29463664906806     -0.03833992746426
  C   1.96329531048668     -2.04187352460849      0.04617943132248
  N   2.25786615359561     -3.38332549210290      0.08616649330627
  N   0.66473397799051     -1.78421850721774      0.05812413659158
  C   0.05365773078075     -0.57144102484992      0.03681129040653
  C   0.65361128959673      0.76152114070144      0.03999136369537
  C   -0.19657583902529      1.87474043048635      0.10407691406090
  C   -1.59166255383208      1.81428388097770      0.11290301450824
  N   -2.36500161886273      2.97025972256215      0.16353046043121
  C   -2.16988230836641      0.55659329409258      0.02334942691657
  C   -3.49397843815809      0.05778758763335     -0.13626710976742
  N   -4.62785362330177      0.79265727213099     -0.22722523850297
  N   -3.53986653203720     -1.29267635691055     -0.18874288753061
  C   -2.25553102919048     -1.69707326051466     -0.09610099924193
  N   -1.87934012137009     -2.96866767470058     -0.12549619971881
  C   -1.33603809584680     -0.58992116864503      0.01689620510343
  H   5.10424903105976     -0.17952550753114     -0.30650381057526
  H   4.58169960143478      1.46999003427054     -0.31573480298761
  H   1.55016888236301     -3.98371368360979      0.46830386517612
  H   3.20791669709840     -3.60574379102131      0.32380335368646
  H   0.26016033775225      2.85363644725104      0.15908052677923
  H   -1.83064268400688      3.80665229215646      0.33939770992059
  H   -3.14068531437896      2.91103436115231      0.80576693962904
  H   -4.53380941477086      1.72443099158095     -0.59715435030397
  H   -5.43767790051822      0.28724475712462     -0.54824017025721
  H   -2.54827975691454     -3.69498318280554     -0.30987646097584
  H   -0.87403030216287     -3.11811545454638     -0.13240423253633
