32
Coordinates from ORCA-job ./opt_b97-3c_parallel
  N   1.57719602955162     -4.06847843799385     -0.44219917481570
  C   1.09548640065442     -3.01235428186140     -0.36221311043296
  C   0.36107013628508     -1.81240015761371     -0.27539380552053
  C   -1.05153738755990     -1.90617464169401     -0.24073836426891
  N   -1.67636249622828     -3.12054142101718     -0.36693588208219
  C   -1.75139954727977     -0.72822927934619     -0.04606538533210
  C   -3.12582405401339     -0.46231740340417      0.15885307264109
  N   -4.16030329888024     -1.34265393518360      0.04509849096806
  N   -3.34793048534138      0.81177737014368      0.52068588099380
  C   -2.15094612925508      1.43767057099473      0.49707323068726
  N   -2.08228646977790      2.70351414052189      0.93456875263160
  C   -1.07567538119541      0.53078745803286      0.11191410383399
  C   0.30410777240983      0.65705062401561     -0.04915565273956
  C   0.95405859354871      1.91536082326482     -0.30514045016149
  C   0.18573140358456      2.95143016201362     -0.85784802715404
  N   -0.45051545811355      3.82354873916084     -1.30293504836519
  C   2.31147732774757      2.24841517329843     -0.15341817588262
  C   3.38772656165120      1.47610268666782      0.17082099120273
  C   3.36286345747197      0.06993305791750      0.33221625742169
  N   4.51246351626158     -0.52948712473511      0.73771495154493
  N   2.37329280073598     -0.77790797229569      0.12530113413784
  C   1.06507779067430     -0.59686204211967     -0.07539804770516
  H   -1.06933610102902     -3.92529134728748     -0.32363093181544
  H   -2.51117836229197     -3.23731465451105      0.18434126669940
  H   -5.06681438867201     -0.90351805477747      0.08893915463195
  H   -4.08404576752041     -2.02084194997648     -0.69596233819646
  H   -2.98111476482830      3.11489763244109      1.13053712305778
  H   -1.41082165343678      3.33550695976640      0.52345189602341
  H   2.53087304245073      3.29323882509606     -0.33754225722392
  H   4.34130208257305      1.97503177934127      0.28547446212029
  H   5.37955695006005     -0.02625746711353      0.74814096221729
  H   4.54696825656106     -1.53220064284541      0.67970698208440
