30
Coordinates from ORCA-job ./opt_b97-3c_parallel
  N   -0.53535985365914     -3.51544432439689     -0.92362479268796
  C   -0.66577684755259     -2.41502048535822     -0.56534763103692
  C   -1.01423851355428     -1.09679249767144     -0.19274216401597
  C   -2.43215996598934     -0.89264598890018     -0.13950044104198
  N   -3.23054746387250     -1.98796680331732     -0.32242295713507
  C   -3.07978267070353      0.29646571898015      0.15402932165115
  C   -2.52283398943557      1.56651723697215      0.31196370113326
  N   -3.36229238999160      2.56818489160949      0.74397593094198
  N   -1.28956561162343      1.99286364216650      0.08049620511499
  C   -0.16034837132699      1.30566600755378     -0.08573726731022
  C   0.95600371661057      2.09596229616484     -0.36990687166898
  C   2.26314535285948      1.61873316379368     -0.34732639960314
  N   3.30127289577295      2.44425503449760     -0.64985995149408
  C   2.47878700429858      0.27233261534841      0.00682192325801
  C   3.64413803189695     -0.45859282098933      0.22825056094782
  C   3.27416244617815     -1.76882941088263      0.61573674837836
  C   1.89584696725749     -1.86767721660088      0.61117134676693
  C   1.35245534806842     -0.60030721297842      0.22867193033427
  C   0.03291431034476     -0.17259862703342      0.04120580253798
  H   -2.82726888925366     -2.83169681535281     -0.69211325014894
  H   -4.19226774661401     -1.83040493243084     -0.55885140120343
  H   -4.15463575626462      0.22720631580984      0.27673478271149
  H   -4.35303908597012      2.44473691844428      0.63584870477364
  H   -3.02121810849377      3.49781378521303      0.57068345947239
  H   0.76719028205292      3.15076937523869     -0.51274874808731
  H   3.13390759556221      3.43444363626803     -0.65769420199308
  H   4.22473161781311      2.17211877437923     -0.36660485028531
  H   4.66077759503299     -0.10697364205997      0.12673085375239
  H   3.95957089234644     -2.55841615995656      0.88124309384078
  H   1.33679643090957     -2.74045289301118      0.89755364149661
