29
Coordinates from ORCA-job ./opt_b97-3c_parallel
  N   -0.15476400052675     -3.41862342363930      0.75515113268597
  C   -0.45954629297799     -2.32676459149496      0.48266584289408
  C   -0.97270274472551     -1.05130184086776      0.18089269811522
  C   -2.39517430016612     -1.04750576461280      0.02471453912470
  N   -3.03267794009531     -2.24110025625107      0.07518420275920
  N   -3.23787353872361     -0.04457279451130     -0.21575681228184
  C   -2.95791521298026      1.24829210809731     -0.12990648231290
  N   -4.06259001370262      2.04579691513949     -0.28956401034094
  C   -1.75201055483986      1.90795390129094      0.14641940665148
  C   -0.44434671177356      1.43637650447832      0.18932040490613
  C   0.56534453227938      2.41912820878396      0.36871054789823
  C   1.90676363141297      2.14066207088529      0.30875409524941
  C   2.30583209901950      0.83921890159518      0.04283408860472
  C   3.55073130611349      0.22113274686723     -0.18367100352446
  N   4.78693857139803      0.76261383766727     -0.18302379700912
  N   3.40548881125380     -1.10902328947734     -0.49470685609503
  C   2.10456262824216     -1.36321581055308     -0.44158575687109
  C   1.32769037813782     -0.20138624411024     -0.10817016302685
  C   -0.04561419952323      0.03061902714215      0.04959551686309
  H   -4.03495997090572     -2.22016270014089      0.06507189294818
  H   -2.55781287953700     -3.09221188188191      0.31441218643181
  H   -3.93254953147156      2.99872149616876     -0.57656671466950
  H   -4.87305808788886      1.58112088863074     -0.66020173633299
  H   -1.84890700139462      2.98038636871560      0.26734722348517
  H   0.24197366612544      3.43756933042642      0.53454447640879
  H   2.62512777302016      2.94238223348972      0.43528197576159
  H   5.55582472056716      0.11475912283018     -0.19456572658969
  H   4.94556637156672      1.63687461752416      0.28295232478107
  H   1.74633981089603     -2.35323308659219     -0.66496574241443
