26
Coordinates from ORCA-job ./opt_b97-3c_parallel
  N   0.51581164784205     -2.51092458677005     -0.41295956981779
  C   1.09519957253538     -1.30815644407627     -0.13917264105751
  C   2.49349348323857     -1.36611622542099      0.00731361316847
  C   3.42114464123226     -0.38443720412958      0.24565580602070
  C   3.21515169641832      0.98882153874276      0.28438444799035
  C   2.02539945043043      1.64756507202081      0.09591310114915
  C   0.69689815886038      1.19913817369714     -0.04783574569314
  C   -0.24369483608551      2.24398150672910     -0.21885543258792
  C   -1.59843045670230      2.03419167143182     -0.25828310656367
  C   -2.10131512249487      0.75393300002104     -0.07680590807489
  C   -3.41076831966770      0.28180942806530      0.02465026639876
  C   -3.34581880198410     -1.09368925442680      0.28469819350615
  C   -2.01406750570870     -1.51193663210403      0.30944114181519
  C   -1.18147527209203     -0.37552764193612      0.08873840279494
  C   0.21415719754683     -0.17824699021417      0.01467375806569
  H   -0.41965238228678     -2.49835834664565     -0.79151015458354
  H   1.11275293622232     -3.23824735257654     -0.76508289499333
  H   2.90031139083199     -2.36944277049934     -0.06423434343978
  H   4.44267031475982     -0.72417367792648      0.36820608653821
  H   4.09023134013291      1.60839102132458      0.43412675338266
  H   2.11196637556240      2.72788756284926      0.08566449329691
  H   0.13775750006444      3.25279238702245     -0.29434886380057
  H   -2.27313029058889      2.87102037439667     -0.39420150595280
  H   -4.30500838798396      0.88008194302924     -0.05552535245022
  H   -4.19437046530707     -1.73992155907642      0.45556287867931
  H   -1.70871494057614     -2.50018188062749      0.60762310720884
