29
Coordinates from ORCA-job ./opt_b97-3c_parallel
  N   -4.98210613582271     -2.10341688273132      0.79160520964649
  C   -4.03514308349028     -1.46087347362281      0.58984841599824
  C   -2.90037156960764     -0.66681982103550      0.34605920548161
  C   -2.92327331641666      0.74052643892811      0.11999321721332
  C   -1.61233075143749      1.15237712576333     -0.03522667924285
  C   -1.02369485748533      2.41715975645577     -0.24951364592284
  N   -1.76725641382485      3.52065091047783     -0.47375858379534
  N   0.28950974570288      2.59482005379414     -0.17818532766785
  C   1.12369602110069      1.55112804405844      0.00773009504127
  C   2.43863910232141      1.94036137706242      0.26106119015312
  C   3.58176571053475      1.19122695361199      0.49135584364016
  C   3.79357530631781     -0.15826435865363      0.39005752797866
  C   2.89105903395987     -1.15046573345759     -0.03030918562893
  N   3.42185588501338     -2.39042088289821     -0.20651067541964
  C   1.49281709200120     -0.97658768620260     -0.23496021800592
  C   0.88052380656993     -2.15310696939490     -0.73230151570721
  N   0.53598272308080     -3.16979171021562     -1.18066877730006
  C   0.64916604667445      0.15215934604711     -0.01477801706616
  C   -0.74374483162870      0.00279554415702      0.07793739318889
  C   -1.58048490795942     -1.11767785368942      0.31211326911069
  H   -3.81612944107854      1.34463052433010      0.11046701819280
  H   -2.72981798854653      3.43697687459120     -0.74021033917200
  H   -1.28069817080992      4.36444134406353     -0.71998322180533
  H   2.55072262216135      3.01396075458660      0.32328588342979
  H   4.45360559648763      1.77061665019836      0.77100674688876
  H   4.79819582939196     -0.50423047502933      0.60049781650722
  H   4.41702032571040     -2.48687544354153     -0.27642836745140
  H   2.87107889530968     -3.12975108961296     -0.60728932285246
  H   -1.28517128463015     -2.13574211894073      0.48290828456706
