30
Coordinates from ORCA-job ./opt_b97-3c_parallel
  N   5.14224523969638      2.90906267051125     -0.01149438615837
  C   4.21038619155357      2.21492035758127     -0.00638054697110
  C   3.06534585587190      1.38102352828561     -0.00069639377567
  C   1.82057751762369      2.03052050378433      0.00298566050649
  N   0.59530893172393      1.56837403016581      0.00520695474812
  C   0.14237488345947      0.28415372600097      0.00897349098458
  C   0.90650982150587     -0.97434973092365      0.01478184993672
  C   0.21476386269765     -2.17001523764559      0.02548871476143
  C   -1.19357074782609     -2.28680585907705      0.02308893253598
  N   -1.75275220107967     -3.51766201213352      0.06237469955482
  C   -1.93923875717445     -1.10929085394793      0.01553453888653
  C   -3.31631988770240     -0.85008711998582      0.01557039397703
  C   -3.51972104267631      0.53905303702537      0.00741477149647
  C   -4.73450009243974      1.23273273253456      0.00423152582632
  N   -5.71204328083819      1.86390445928564      0.00049932138645
  C   -2.24410685262917      1.17766097071294      0.00325178930236
  N   -2.00192600500596      2.48103922844735     -0.00478412675416
  C   -1.23958542181294      0.14700470033178      0.00906787967597
  C   2.35250521915413     -1.03090919619928      0.00540639039160
  C   2.93547441774684     -2.32569697656977     -0.00003277074108
  N   3.40478832427554     -3.38859805987213     -0.00592867670574
  C   3.27279685583852     -0.00315655053012     -0.00085656847642
  H   1.87661344423609      3.11544636683971      0.00297364222328
  H   0.78332214290919     -3.08912829602538      0.03467073638679
  H   -1.18159028918064     -4.32862930565501     -0.08941759975223
  H   -2.73525099104155     -3.63284012497792     -0.10045887953487
  H   -4.11715063895948     -1.57215440259941      0.02709766400570
  H   -2.74850334227433      3.15484134128094     -0.00581001152341
  H   -1.02247826844866      2.74879130295410     -0.00258136687977
  H   4.30877048469685     -0.31376323509877     -0.00663106831374
