33
Coordinates from ORCA-job ./opt_b97-3c_parallel
  N   -5.67623068708615      0.11709664560826      0.46851740695727
  C   -4.52107683869731      0.03712142355507      0.36175919237433
  C   -3.11582517759704      0.00647960937594      0.20251796809704
  C   -2.49591745528841     -1.20164593095264      0.45387149449576
  C   -1.17313449502307     -1.61672656670288      0.32188390973120
  C   -0.97412660181645     -2.95582086352496      0.75515116380580
  N   -0.87263215119729     -4.02618911122830      1.19473796717461
  C   -0.02510593831216     -0.85805721483781     -0.04628116894002
  C   1.16431425622488     -1.53868997237617     -0.39751289072222
  C   1.15048296711776     -2.85233534858843     -0.90748484354632
  N   1.29704793486315     -3.88541644263248     -1.42189649238060
  C   2.44616038947848     -0.91258461048787     -0.35682696358975
  N   3.56565392558930     -1.60055893494143     -0.69407083814111
  C   2.48288623749482      0.39850054872274      0.09266163507807
  C   3.52307183018597      1.28289002328548      0.44651733348724
  N   4.85421412622301      1.04338704925967      0.50404965083555
  N   3.03662022052001      2.51939745899683      0.76723131038790
  C   1.71575181903378      2.45412827805361      0.62777775386524
  C   1.27288107021339      1.15640445959581      0.22548790090577
  C   0.00697378788336      0.60215758654439      0.01133541032168
  C   -1.10548355142487      1.45539698139139     -0.28817249188897
  C   -0.79031171774248      2.75027230685179     -0.75937984940029
  N   -0.67157597012045      3.82766130018396     -1.18402695751680
  C   -2.50153439605485      1.22112656350135     -0.23931865779351
  N   -3.33354737314576      2.21419687721860     -0.59781333239228
  H   -3.16604382227317     -1.97744695496773      0.79776704604838
  H   3.44545891245841     -2.50760675825167     -1.11825278619647
  H   4.34311750226784     -1.07273444944765     -1.05186809835421
  H   5.15638280626822      0.10923894446145      0.72622037171237
  H   5.39222746940501      1.77348853697690      0.94366818866427
  H   1.10796090805509      3.31221857508694      0.85974560690277
  H   -2.98302572292089      3.11334302889999     -0.87909987708557
  H   -4.32948629358149      2.08424886626563     -0.56742206789962
