29
Coordinates from ORCA-job ./opt_b97-3c_parallel
  N   -4.17933103644184     -2.03045638197179      0.18073626590900
  C   -3.29436725362029     -1.27339198181709      0.13903181830165
  C   -2.23066011038683     -0.35392147251380      0.08249004604419
  C   -2.58339963338474      0.98731996190813     -0.20669997745386
  N   -3.78887754021474      1.24542975736927     -0.75197264856930
  N   -1.88352444655209      2.07765107798638      0.10894075701057
  C   -0.59309459643716      2.14681070332932      0.32323911041987
  C   0.46676914861686      1.24599449904724      0.11622182156105
  C   1.76638978162903      1.84730481816864      0.05650143173548
  N   1.88811540296378      3.24286848190734      0.07004142050773
  C   2.90877607433250      1.07047531141001      0.01096560775550
  C   2.81245146999679     -0.30681330144462     -0.05036706258006
  N   3.82466893822798     -1.18210667254214     -0.17670411436203
  C   3.21800788020771     -2.39011396010404     -0.29087088069602
  C   1.82779603834668     -2.34027067422791     -0.21157984223574
  C   1.50271039691146     -0.96659832900796     -0.05690645722107
  C   0.33445096609466     -0.19825655774049      0.06844204822525
  C   -0.92417596765201     -0.86264352788504      0.31687639855985
  N   -0.85784142902344     -2.13206941968389      0.74000377822698
  H   -4.11495760287835      2.19449295396848     -0.71378039837160
  H   -4.46125740407759      0.51522790721799     -0.90524188240681
  H   -0.28744566491649      3.12155879091393      0.68727374369243
  H   1.33191743950995      3.72275659894915     -0.61913178405449
  H   2.84676090553992      3.54349409685274     -0.00051117663090
  H   3.88821538029813      1.53059340517368     -0.03662670198091
  H   3.81264543204095     -3.28042754778257     -0.44337316982376
  H   1.17692041262100     -3.17861305454833     -0.39349513462876
  H   -1.68963581475398     -2.64940152546295      0.96407347491694
  H   0.03126025180183     -2.51396259086938      1.01677793924867
