28
Coordinates from ORCA-job ./opt_b97-3c_parallel
  N   -4.08198499876949     -1.78452601302960     -0.54557051531139
  C   -3.05296603404271     -0.95692940755633     -0.20224566926871
  C   -1.79719853051052     -1.57470313222215     -0.01987150772675
  C   -0.54225690119524     -1.00747194195737      0.11314116972183
  N   0.47670217032472     -1.88792716190239      0.25641342590199
  C   1.73970676716392     -1.47978526339425      0.19355847709041
  N   2.70309517538689     -2.43933433194790      0.37102377490265
  C   2.07311092954321     -0.14749146314183     -0.07375621708311
  C   3.25846506987497      0.58107410383568     -0.22929983650268
  N   4.54837593899648      0.11369194356902     -0.27576509382129
  N   3.01142109439545      1.92621662083337     -0.30568439346435
  C   1.68667698188909      2.07329467816857     -0.21244713621187
  C   1.02441358265596      0.82737787411376     -0.08451383658813
  C   -0.31444618739244      0.46299418235678      0.05274490483244
  N   -1.23447988885568      1.42303103920116      0.14866936383610
  C   -2.55664822420813      1.31132555541424      0.18316889349634
  N   -3.18840905291428      2.46774182702720      0.52864620617687
  N   -3.41165590611512      0.31323079235362     -0.08827466651421
  H   -3.98225016296305     -2.77621382734096     -0.43646593813646
  H   -5.00759897193203     -1.40403421412756     -0.46214780887547
  H   -1.78530201822026     -2.65689760118263     -0.04763174402053
  H   2.34426827116225     -3.30031111294861      0.75240699159988
  H   3.56327947681751     -2.12843835695069      0.79290467209680
  H   5.20497655606778      0.82490720727872     -0.55888328903181
  H   4.67618208769872     -0.74954438493173     -0.78023146067558
  H   1.22890714411743      3.04905160789012     -0.24983088393492
  H   -4.17298176126185      2.52945603425184      0.34612665979012
  H   -2.64263135831330      3.30931115833996      0.50761280732209
