32
Coordinates from ORCA-job ./opt_b97-3c_parallel
  N   -5.80967329498316      1.73178715339868     -0.02108308316098
  C   -4.72722814558033      1.29941450455261     -0.00985348029873
  C   -3.44941627573890      0.71060893702864     -0.00073075188865
  C   -2.35112572374504      1.57141354126079      0.04579959991436
  N   -1.05585449004833      1.36744487536893      0.06697675703483
  C   -0.41387013510748      0.16021629492150      0.04062148247794
  C   -1.00954703705597     -1.18325605743745     -0.01149961799045
  C   -0.14612184901520     -2.28636947796444     -0.00306314048673
  C   1.24665501433508     -2.20796134157459      0.04429933484662
  N   2.02885448646981     -3.35594785615000      0.06823967115959
  C   1.82125496781740     -0.94118685420245      0.02650286786022
  C   3.16304804917923     -0.49296318083914     -0.05385433763022
  N   4.26703903049607     -1.26894746480332     -0.16035813105396
  C   3.17459659245239      0.92891254908306      0.00328706998967
  C   4.30700979431303      1.73582780348137     -0.07820214232676
  N   5.26229433408441      2.40006304573972     -0.15027009643228
  C   1.82958726125715      1.36866208586749      0.06714485953775
  N   1.37729482659922      2.61155531243121      0.10333441008799
  C   0.97218138533815      0.20549411605499      0.06671324061038
  N   -2.31861907194663     -1.51124430039017     -0.04647650869832
  C   -3.37657387295051     -0.72812269146823     -0.04193750508016
  N   -4.55210930416408     -1.39070276407234     -0.07865476585307
  H   -2.62019746746514      2.62425970991750      0.07072631346634
  H   -0.62462649942412     -3.25647213717430     -0.00007867938463
  H   1.50027796468391     -4.20428761161623      0.19591456001507
  H   2.79366399778682     -3.31798437346062      0.72491031312131
  H   4.15076887593349     -2.16882818535855     -0.59718528810297
  H   5.12985630436548     -0.80321317834953     -0.39184770615549
  H   1.99644636336242      3.40272502061600      0.06780696486634
  H   0.35888031526841      2.69658408147599      0.10437138140411
  H   -5.43504095058474     -0.91418043780155     -0.11063605258874
  H   -4.52163474603280     -2.39192579013556     -0.13245215516042
