30
Coordinates from ORCA-job ./opt_b97-3c_parallel
  N   -4.05343687618550      1.85217646380170      0.06403571587364
  C   -2.94461893973910      1.02631103607134      0.04655184769490
  C   -3.18292402497364     -0.34289957000238      0.02413395151940
  C   -2.23349718552331     -1.36508858327939     -0.06322491488847
  N   -2.73700460517836     -2.65845575322011     -0.10021358034122
  N   -0.90913870835070     -1.32986950154112     -0.06630215160564
  C   -0.06793737035064     -0.27499628097845     -0.02727485120916
  C   -0.40701462522143      1.17061513826071     -0.04596446270016
  C   -1.70531869871142      1.67252049477106     -0.00845975430323
  N   0.54863483188864      2.12125345418584     -0.08899789865634
  C   1.84692470112770      1.80808305170895     -0.05589017857748
  N   2.70767725748399      2.87403629194970     -0.05199009595424
  C   2.28860702190465      0.48723600330467      0.02532530243368
  C   3.54390518958876     -0.13037732085194      0.13305755109890
  C   3.36545255635108     -1.51884859809433      0.19143838060155
  C   1.99108853285056     -1.79778459144739      0.11388369235962
  N   1.37916881423980     -3.01008838131219      0.09595535707816
  C   1.29261580906263     -0.54663993169510      0.01214735656382
  H   -3.89870999822736      2.79363573115469      0.37974590793492
  H   -4.90359887100179      1.45355920687788      0.42241842917651
  H   -4.22074750687674     -0.65406702482463      0.05508700987119
  H   -2.08200440450785     -3.32487905526706     -0.47332000483104
  H   -3.66378368852273     -2.76354911296397     -0.47602425403673
  H   -1.73388426053984      2.75524816326165     -0.01433991576526
  H   2.28915943160002      3.73941477193111     -0.34929790818272
  H   3.63669718499069      2.71239481412639     -0.39767817679008
  H   4.50034771129615      0.36848713273088      0.18822082042467
  H   4.14992407285234     -2.25527575398053      0.27577968940149
  H   1.86621588696007     -3.79316713089980      0.49541235687705
  H   0.37778449861335     -2.95909396657826      0.23230299003231
