26
Coordinates from ORCA-job ./opt_b97-3c_parallel
  N   4.12538221627974      1.26325325965160      0.40330200125204
  C   2.87207932563049      0.82804563645612      0.09041402658275
  C   1.89642392508842      1.81307577945913     -0.19756149942740
  C   0.55380114315495      1.61136288072391     -0.30635421445288
  C   -0.23991318548027      0.45442685643671     -0.13116809438406
  C   0.27302895071049     -0.88156126838020      0.04588851373504
  C   -0.61840204400839     -1.93332096593066      0.32276773393879
  C   -1.98933997936034     -1.75196276214067      0.41362332039105
  C   -2.52840833772067     -0.50077824227941      0.17593362729235
  N   -3.82478657961555     -0.12527736196689      0.19513043160171
  C   -3.79499932663427      1.20349918257056     -0.06777914628849
  C   -2.50709551006425      1.71886966444413     -0.25303120320397
  C   -1.64169798030971      0.62432449744834     -0.10600022502602
  C   1.65713447275093     -1.21236024803050     -0.17603162893480
  N   1.94141407988455     -2.49808657977115     -0.51025217400273
  N   2.75131580051575     -0.48039836425910     -0.00972829171670
  H   4.77609937213229      0.56770437533859      0.72333721873956
  H   4.24814008140909      2.19409692561317      0.75633964990296
  H   2.25603645196633      2.82906141130536     -0.30523773590192
  H   -0.01969368480030      2.50832861873254     -0.50030782022446
  H   -0.21964408553644     -2.91418012830266      0.53718256039805
  H   -2.63842013558942     -2.58060504545051      0.66498071416511
  H   -4.71859295883980      1.76433571132291     -0.11794170103600
  H   -2.26280730564039      2.74726802796026     -0.46712664962545
  H   2.90325948735393     -2.70214754844777     -0.71532490094187
  H   1.24081632602326     -3.06332919540419     -0.95134108623258
