30
Coordinates from ORCA-job ./opt_b97-3c_parallel
  N   1.72196737119197      2.96742049180890     -1.25240422331063
  C   1.63289245859594      1.90477525511374     -0.78224189517363
  C   1.69278025903334      0.60072998782133     -0.24454561080230
  C   3.01372882552774      0.17482327331306      0.02398781496468
  N   4.03004912599394      1.08334883934145     -0.09049705188989
  C   3.40335926209614     -1.11349634245817      0.44082044080632
  C   2.64550281710881     -2.25564934290095      0.45004602981337
  C   1.30429964547730     -2.45457665637040      0.15610475229260
  C   0.27555839225738     -1.53601585139356     -0.06049602159606
  N   -0.92899575769213     -2.11236332738864     -0.28149508290854
  C   -2.03718468458376     -1.38394872718483     -0.28645947459655
  N   -3.21027045380538     -2.05078198260519     -0.56104578684890
  C   -2.02313343054530     -0.02473285723933      0.02859379340215
  C   -3.02939651113727      0.91864851823290      0.27013778523889
  N   -4.38680968118170      0.68680400644443      0.28170073090325
  C   -2.39619781247138      2.17882324394152      0.48554691838929
  C   -1.03202745351827      2.02068417557852      0.38992678491292
  C   -0.74701348002698      0.64381539500497      0.11916665388278
  C   0.43615044374829     -0.07266488405549     -0.02061554455423
  H   3.84481390221577      1.96665970346661     -0.53521625574901
  H   4.95915303296745      0.72726563636039     -0.21929402129011
  H   4.44789539780154     -1.22172866655638      0.70609181465359
  H   3.18606314837823     -3.15758851584276      0.71458950034910
  H   0.95980755610046     -3.47960288036259      0.15803611673794
  H   -3.05241313164858     -2.97814298242485     -0.92427782016801
  H   -3.89237873340568     -1.52696406061321     -1.08613371005410
  H   -4.65978133283688     -0.22569953135984      0.61317511515875
  H   -4.93608580243707      1.41556522543320      0.70695268182542
  H   -2.91240633936617      3.09997880705017      0.71132299093719
  H   -0.31042958893191      2.80267492524145      0.54378654967286
