28
Coordinates from ORCA-job ./opt_b97-3c_parallel
  N   -5.46690289076435     -0.76686741159627     -0.03131013381661
  C   -4.41595544066455     -0.27041737679221     -0.01105825148909
  C   -3.11570619123509      0.29116116603811     -0.00161334119015
  C   -3.04207800390706      1.64361775319076      0.30117577787851
  N   -2.04168247290621      2.49317230389352      0.11589395029406
  C   -0.79510823122716      2.18552612086962     -0.13695429181289
  C   -0.07323550513478      0.97169886082684     -0.01971698019243
  C   -0.64844301205617     -0.36113134076037      0.01860874740236
  C   0.25084861134024     -1.44976077059802      0.18296614243020
  N   -0.20941770309792     -2.77224477973026      0.35102115059034
  N   1.57791598969016     -1.34363987047353      0.15988044972684
  C   2.11796413145337     -0.14896519350928      0.02997231510898
  C   3.48580566405644      0.20692118814928     -0.02711594875169
  C   4.57438557313166     -0.67166621751210     -0.00728404642698
  N   5.48134803646308     -1.39964477059726      0.00795889096221
  C   3.53047551562760      1.61733177607267     -0.07062613537361
  C   2.23693244402968      2.14764102975024     -0.04973538026074
  C   1.32724136395756      1.07980335491680     -0.01164519360640
  C   -2.03395043558881     -0.60967014348147     -0.29060582735551
  N   -2.37612996109924     -1.78583037834461     -0.82246424071022
  H   -3.96057265451514      2.10293273169080      0.64952417238938
  H   -0.19012565575057      3.04047535800611     -0.41813773545711
  H   -0.82312703803958     -2.88374085210174      1.14728682918424
  H   0.59315201658237     -3.37767655164732      0.45644116689597
  H   4.44061848352704      2.19442459922486     -0.10684835748756
  H   2.01046892786339      3.20102884518777     -0.04553827922395
  H   -1.68602018767429     -2.53233922356682     -0.84337679592365
  H   -3.34598310686101     -2.01868195510663     -0.95897410708470
