26
Coordinates from ORCA-job ./opt_b97-3c_parallel
  N   0.27433746827286      3.32110968627079     -0.00741450355561
  C   -0.20629332758731      2.00564640366137     -0.01874525651908
  C   -1.57434957456201      1.79230216431080     -0.05624814197434
  C   -2.08341650728403      0.51004023036699     -0.05515856884216
  N   -3.38573907867650      0.16239298552928     -0.01762093851748
  C   -3.37422774536041     -1.18502925051793      0.09801730956489
  C   -2.09539861857118     -1.74313780285466      0.11052677906894
  C   -1.19553967563455     -0.64709621683759      0.00805857400065
  C   0.19768615894013     -0.45864015432666     -0.01086258764452
  C   1.07021628889296     -1.59119478989374     -0.09312392025714
  N   0.52190568067203     -2.79366667949839     -0.37048465334287
  C   2.45254912214041     -1.62501942285121      0.20821612496231
  C   3.34783709335801     -0.59701712829839      0.29313774731681
  N   3.21276022485505      0.68602202280360     -0.05787794951820
  C   2.06029287902637      1.28356957416431     -0.25442151156594
  C   0.71087419572303      0.91138366297577     -0.04312565387478
  H   -0.46551964041980      4.00063174354057      0.06212152081896
  H   0.97691225262712      3.50864905371681      0.68953051810944
  H   -2.26291275907543      2.62859461437653     -0.04194349652836
  H   -4.30435320304090     -1.73050594314678      0.18061895417799
  H   -1.89904030559762     -2.78151579349325      0.31555561584708
  H   -0.39726174939352     -2.82218561446464     -0.78050567385082
  H   1.13321681881630     -3.55889479000979     -0.59043803052574
  H   2.86514758726609     -2.61578889829990      0.36695459405417
  H   4.35512060153790     -0.86248820367618      0.60060014565334
  H   2.17677443437506      2.29486451705226     -0.62962492295753
