26
Coordinates from ORCA-job ./opt_b97-3c_parallel
  N   -3.63681003660980     -2.36847702729466     -0.42592376460646
  C   -2.77641981258170     -1.60137206619304     -0.28253677467902
  C   -1.66008007695687     -0.75050876180792     -0.11734295916653
  C   -0.36408008078099     -1.31328098964136     -0.12281432498779
  N   -0.24541377487505     -2.71187635749148     -0.19664420879059
  C   0.78470945287622     -0.49842171302089      0.00162494088596
  C   2.07425901594315     -1.09941645411378      0.27268996427922
  N   2.13030603250397     -2.21862275771210      1.00415173458268
  N   3.27251251972733     -0.69372702721672     -0.16697437348276
  C   3.67786902374817      0.51541808817971     -0.44712712596817
  C   3.02824788703594      1.73588766298362     -0.22904236907976
  C   1.69221912961409      1.89577937960182      0.02275815991586
  C   0.65062713903683      0.94311222960819      0.05554200110469
  C   -0.65061347524437      1.46656598818151      0.12698731566120
  N   -1.06043460453499      2.75329209667031      0.20371894047861
  C   -2.40399557024306      2.63574300807008      0.17748151517374
  N   -2.92221557075383      1.38917904330228      0.07685760956360
  C   -1.81588056909623      0.62664831847692      0.04273152291323
  H   -1.13579210703358     -3.16862409412389     -0.33381543346981
  H   0.40106857025904     -3.02280496438562     -0.90691230224255
  H   3.01419794081383     -2.69587775826429      1.05374333895649
  H   1.27976254674911     -2.72924210207525      1.20037625909699
  H   4.67976005000240      0.55892798486476     -0.86581482463980
  H   3.63068774176804      2.62828591976653     -0.33755627514359
  H   1.33200586050199      2.91145627577799      0.12946018262708
  H   -3.04363313076911      3.50398859455559      0.23767065251723
