30
Coordinates from ORCA-job ./opt_b97-3c_parallel
  N   2.26326472686537      3.31463254891518     -0.43035622068369
  C   2.16777102391919      2.15871369757428     -0.28401170786903
  C   2.09669918981315      0.78523857998875     -0.08857169645184
  C   3.22891325934802     -0.08332740291967     -0.15413697302783
  N   4.51633668243492      0.31377517965502     -0.22949243823272
  N   2.91107231950091     -1.39083643878532     -0.10730471067979
  C   1.56813434246337     -1.42918714466308     -0.04618511315955
  N   0.85460169127718     -2.55006905923657     -0.04527829399607
  C   -0.46673525614882     -2.44685032077751     -0.00025022055639
  N   -1.14622877879034     -3.65744457671057     -0.07079454006440
  C   -1.17804868157762     -1.21209071219608      0.13029470484102
  C   -2.57825330596916     -1.27334484299977      0.24994680555725
  C   -3.53770352076622     -0.31117430140839      0.09660555587560
  C   -3.29346424651187      1.05270601679325     -0.20593509608550
  N   -4.31843949412729      1.78148517935461     -0.71400873907108
  N   -2.20013750260777      1.73839787036515      0.06354803744907
  C   -1.02449249708758      1.28095882081673      0.46503806029173
  N   -0.31656159333208      2.13375984172061      1.20740203398893
  C   -0.40029255215503      0.00452188918168      0.14255759081656
  C   0.97455564459910     -0.09569679012751     -0.00699816608627
  H   5.18508084216267     -0.38567630822970     -0.49983521706982
  H   4.71276425890629      1.25951905631052     -0.50594904947503
  H   -1.93348968186462     -3.68433619721873     -0.69652036434504
  H   -0.49795343014753     -4.40547908582595     -0.26349948027690
  H   -2.97034958985663     -2.25983056857110      0.46138776440682
  H   -4.57376877419475     -0.61815926830837      0.15872917543726
  H   -5.08991311876386      1.31918541070311     -1.15684896541420
  H   -4.12360962103137      2.72835115395379     -0.98771283495521
  H   0.63363934817050      1.92981326432537      1.46093291864782
  H   -0.62197701782797      3.08929505402033      1.27014117528833
