34
Coordinates from ORCA-job ./opt_b97-3c_parallel
  N   -5.89690459216983     -1.48352902322609      0.69756379703609
  C   -4.78773059634762     -1.18043569589921      0.51668296189375
  C   -3.47931819575818     -0.73019145566527      0.30387802000085
  C   -2.31008111494768     -1.49149535418338      0.17566184276349
  C   -1.22131721193466     -0.61516978971329      0.03899322329993
  C   -1.73532091938190      0.72631604189630      0.04931292638264
  C   -3.12890279290133      0.65514312131870      0.23222739546896
  N   -4.01303986284963      1.70165638413951      0.29088726091459
  C   -0.90181261553661      1.79043577367856     -0.28801378917442
  N   -1.38624282258902      3.03687187212945     -0.51512091140891
  C   0.49761124931988      1.53495237521669     -0.36886728063155
  C   1.29298464587106      2.61259324391277     -0.80097420789399
  N   1.82278096089383      3.55384372834757     -1.23555477988588
  C   1.05399213393038      0.25317486770872     -0.11488789471296
  C   2.40889538595061      0.15489726374618      0.26415024938351
  C   3.01904546626538      1.30632431511109      0.80928780595800
  N   3.60098271188901      2.15999437915862      1.34604060772769
  C   3.27302992100648     -0.99496654162077      0.23172821299671
  N   4.57000503964866     -0.79103338131930      0.57503833173605
  C   2.92282379679532     -2.27153844638706     -0.17422477136709
  C   1.65084721224957     -2.75026204495801     -0.50425095746551
  N   1.57564673202326     -4.01010731262093     -1.02724967572722
  N   0.46001167731600     -2.17894909749180     -0.36525781771164
  C   0.14352210668289     -0.91088938640149     -0.14650644991270
  H   -2.25425217817530     -2.56547329648715      0.20473202889341
  H   -4.95719815812028      1.44195774677017      0.53455100081000
  H   -3.70091407669645      2.50653396163566      0.81212800635244
  H   -2.33972727638752      3.10989862344014     -0.82921159269937
  H   -0.75493214066719      3.71878293913031     -0.90596341214385
  H   5.16814542588134     -1.57893388650638      0.73442432333172
  H   4.86398042975856      0.08857542017827      0.96212763953688
  H   3.73710440466095     -2.98247353728023     -0.25019196493560
  H   0.66318471960316     -4.42966307461247     -1.03563837011484
  H   2.36129913301532     -4.63059183984855     -0.96519407000253
