30
Coordinates from ORCA-job ./opt_b97-3c_parallel
  N   -5.66119820345677     -0.59530268030352      0.67339928676384
  C   -4.52310224100885     -0.41958792724761      0.50828608630157
  C   -3.17639127168538     -0.10218628783397      0.29426400736319
  C   -2.07471947011853     -0.95706814076291      0.29962977654228
  C   -0.89995775226729     -0.20344692218079      0.05172714469883
  C   -1.31384957391687      1.17629732478323     -0.10351677186251
  C   -0.38908544872678      2.16591900698944     -0.32051897123145
  C   0.96607977363918      1.84938111040414     -0.31000954434319
  C   1.91829670251277      2.88644791200748     -0.44140195900536
  N   2.65589726987168      3.77555780990902     -0.56177614190776
  C   1.43763565847998      0.51774762639374     -0.08682402672512
  N   2.74112282439932      0.45510654368585      0.14154660892956
  C   3.58832831199677     -0.55400748951976      0.25393046232677
  N   4.80609459276187     -0.19586759878306      0.71663684884617
  C   3.37456266052007     -1.90544860598433     -0.09618006916913
  C   2.15361634620072     -2.46864992301958     -0.33576535440915
  C   0.85589078814149     -1.92681521447880     -0.29723351981366
  C   -0.12924975990249     -2.90056050303102     -0.59004751996089
  N   -0.87930878126169     -3.75212553623991     -0.84435524318732
  C   0.45012603813558     -0.57738956221389     -0.07056079606489
  C   -2.72429701630621      1.23016349298286      0.02738571437823
  N   -3.52387124353876      2.30298813231213     -0.04160980216100
  H   -2.14336941221137     -2.01080159497707      0.49339315344813
  H   -0.67566925865272      3.20076922587459     -0.45701371376378
  H   5.55780678849700     -0.85373165614908      0.79505353646531
  H   4.99994391181116      0.78335755895427      0.83056357547181
  H   4.23960494221137     -2.55366446430990     -0.14963457244903
  H   2.17784963952844     -3.52263609318782     -0.58117856298063
  H   -3.17536934886820      3.19825287475170     -0.32794341029298
  H   -4.52174090158512      2.18939583867325     -0.00275462930659
