29
Coordinates from ORCA-job ./opt_b97-3c_parallel
  N   -5.53255606465989      0.82457657062605     -0.57319223298516
  C   -4.44259961613376      0.46133976045926     -0.39967788476213
  C   -3.11229352978725      0.01222333818618     -0.19048559003196
  C   -2.91255659066886     -1.37128761609037     -0.12742924807702
  C   -1.74823784135474     -2.04525146733219      0.11432846661565
  C   -0.41659411001115     -1.59535711868147      0.24156987776412
  N   0.47156592608926     -2.58341255188308      0.52758794940933
  C   0.10722603784012     -0.27017201650808      0.06527846715050
  C   -0.74995961867924      0.92105667868716      0.13368911566082
  C   -0.13541382863495      2.18816487388300      0.30359829797222
  C   1.22199210175807      2.36822979711077      0.32825718532258
  C   2.06548132274290      1.27976767181633      0.13266375285124
  C   3.44462137281826      1.19924563149179      0.02166563442507
  C   3.77238089201945     -0.14851025556294     -0.25217849552884
  N   5.04653454307274     -0.62714506187087     -0.42912953098761
  C   2.60197143107115     -0.92594417586882     -0.26040231845696
  C   1.49662254498502     -0.06777495422377     -0.03055623324099
  C   -2.13675144812627      0.98827823444684     -0.00267082215797
  H   -3.79878223192870     -1.98282268432460     -0.23612176146636
  H   -1.86020631543308     -3.12007802927850      0.20142832446103
  H   0.10612533730267     -3.44954463505676      0.88148164289262
  H   1.37799861024617     -2.31199357279775      0.87934522513998
  H   -0.78285002194007      3.04993324727669      0.38434942879328
  H   1.63557861419961      3.36068641439311      0.45769394018373
  H   4.14232809449251      2.01772164074624      0.10977962705552
  H   5.12695964060435     -1.51225157154009     -0.89991010949693
  H   5.72880644064523      0.04138059090914     -0.74361302554741
  H   2.58165257269526     -1.95445503463008     -0.57983330708562
  H   -2.52744854652480      1.99749831541739      0.01403195992797
