32
Coordinates from ORCA-job ./opt_b97-3c_parallel
  N   4.84562085064963      1.57992780830510     -0.66134334045122
  C   3.85844023453226      0.99958954942588     -0.44458494430938
  C   2.66278680584641      0.31477608900930     -0.16725041053950
  C   2.77943550671005     -0.94520997781315      0.50147901596950
  N   3.89663659048514     -1.17113370502603      1.22539393298106
  N   1.94620492595941     -1.95698988754518      0.42746667112153
  C   0.73159013008655     -1.98058805896270     -0.11600142409545
  N   0.31141240866033     -3.17373990694724     -0.52321425910765
  C   -0.23764535742795     -0.88504687055474     -0.15089504064778
  C   0.12454122281777      0.50024206034645     -0.10692731279184
  C   1.45484250331128      0.94623336136531     -0.50649619817988
  N   1.53170954470847      2.06232630847753     -1.25385873783402
  C   -0.88504365712748      1.47408075065022      0.12887944883740
  N   -0.55140146998600      2.83714253441453      0.24623226868911
  C   -2.23684556373345      1.10981194420043      0.20991589021047
  C   -3.20242145196561      2.09885487380105      0.50082784626466
  N   -3.97322537939856      2.93446675453484      0.74368413680819
  C   -2.62389890584653     -0.22053482788198      0.00756263372426
  C   -3.84062272913550     -0.90213223366081     -0.02874380153188
  C   -3.50215491609335     -2.24202456823813     -0.23599523643325
  N   -2.16752547743133     -2.44846079615387     -0.32313670296482
  C   -1.59674541413219     -1.21964256621594     -0.17364944524877
  H   4.09270535482541     -2.11859635364971      1.49364230566859
  H   4.65274174529703     -0.51073602942940      1.23029075200550
  H   -0.71676021605056     -3.30163985732812     -0.62522994826077
  H   0.91049336149669     -3.95394657045075     -0.30870964840512
  H   2.43195370758781      2.47323163348757     -1.43882949762863
  H   0.73205118508717      2.68064129599096     -1.27069748630275
  H   -1.34977787255377      3.41042163246938      0.47787429770572
  H   0.18734411802042      3.01089856022278      0.91257832185318
  H   -4.82805328436248     -0.48556054095849      0.07666360124510
  H   -4.18278801013467     -3.07466016618627     -0.33703800665189
