26
Coordinates from ORCA-job ./opt_b97-3c_parallel
  N   -1.68425232000010     -3.74235222322282      0.24748877802599
  C   -1.30339692188619     -2.64782042369227      0.15262588776274
  C   -1.03072170345742     -1.26652114948330      0.07302437940047
  C   -2.14388939673500     -0.37371914145825      0.13922917709307
  N   -3.37199850138153     -0.86447904730971      0.34643683006678
  C   -1.89845312534719      0.99376557151083     -0.04074643591698
  C   -2.71568159730942      2.12897241682988     -0.09170972675364
  N   -1.98747516219020      3.25147812861195     -0.29907886939264
  C   -0.69897105290815      2.86688196465421     -0.36885916336597
  C   -0.55835796283045      1.47347719081893     -0.22015973711023
  C   0.56456944740569      0.62072788832006     -0.16671928722084
  C   1.83620434612375      1.13891216448692     -0.01752664481775
  C   3.07691555159581      0.47513968390398      0.09327049726749
  N   4.14629602577376      1.22571505798344      0.45039696917328
  N   3.38199777756456     -0.79675132109254     -0.18018905402260
  C   2.48827392070094     -1.72641614978937     -0.47731217762038
  N   1.17677109464671     -1.80453770249879     -0.37621312319564
  C   0.28752706153071     -0.83328780673901     -0.14622037655732
  H   -4.17420998051381     -0.26425098256414      0.32381932312781
  H   -3.52615088341089     -1.85689244018153      0.40744946876803
  H   -3.78980385860023      2.19170710738788      0.00958020446610
  H   0.07516561274066      3.59662713063034     -0.55560723657447
  H   1.88473526397582      2.21523775345828      0.09147041120069
  H   5.02275221081529      0.75279856451878      0.57839573337912
  H   4.04216542088397      2.15091019449769      0.82111526658494
  H   2.94125607471287     -2.65274059888148     -0.81937599126804
