31
Coordinates from ORCA-job ./opt_b97-3c_parallel
  N   4.07157532232603     -1.91844095169179      0.55205856026764
  C   3.22765838125164     -1.13387971129846      0.38515374227051
  C   2.21944041802794     -0.17390674084958      0.17644115768121
  C   2.62873119191314      1.07127725646935     -0.37007527377274
  N   3.77286597755227      1.13538735831731     -1.07459844864751
  N   2.04863604257405      2.24703169327344     -0.13342158002525
  C   0.80304739871197      2.46479163988777      0.20827276003909
  C   -0.34230564852101      1.64981624796966      0.15029638635893
  C   -1.60490247434462      2.32996373290847      0.10218512283584
  N   -1.64562637106895      3.73200463959951      0.13061054311230
  C   -2.77992431618999      1.61108879159196      0.05637885945228
  C   -2.76689531917974      0.22424379681904     -0.02786084292043
  C   -3.80544460013246     -0.69957879357243     -0.19060067290288
  C   -3.23824636843357     -1.96450309911459     -0.32301855930424
  C   -1.83425957462838     -1.88601815072764     -0.21212066121038
  C   -0.97326088681838     -2.95135133466934     -0.48040023454191
  N   -0.23949265803595     -3.83567306827085     -0.68171270145297
  C   -1.50004103839218     -0.49697731028786     -0.01331234030363
  C   -0.30819556673954      0.20695292544302      0.15801412899841
  C   0.90074514123466     -0.50662096555001      0.55530258894428
  N   0.73026519125683     -1.59588464446455      1.30565559229729
  H   4.17847742561787      2.04163273221528     -1.22584258177624
  H   4.35213526801209      0.32462764780332     -1.20131742748545
  H   0.62744720108171      3.48997478516331      0.51419075855522
  H   -2.58617195254129      4.08332181910688      0.04531962735713
  H   -1.06262869559356      4.18155701755306     -0.55779198783639
  H   -3.72655367882811      2.13817924446861      0.01960503591473
  H   -4.85643191335834     -0.46550267826760     -0.24424126168448
  H   -3.77147448464375     -2.88188223498233     -0.51800212368741
  H   -0.20063545334460     -1.92708080285640      1.48852436055318
  H   1.47245185653359     -2.26582923988642      1.42532089211379
