29
Coordinates from ORCA-job ./opt_b97-3c_parallel
  N   5.26291928824460      3.08126556946262     -0.26270070954511
  C   4.37265147444388      2.33667131579690     -0.21281969830484
  C   3.30050324182175      1.42866350828502     -0.15045275445679
  C   3.43062830735272      0.01562700046312     -0.05543139891965
  C   2.14893238684850     -0.52555546752227     -0.02529653944379
  C   1.69518865950827     -1.85117813573089      0.10344677542279
  N   2.53153717159045     -2.88710628415632      0.21361412000230
  C   0.28762583585704     -2.07909246785651      0.09301787085541
  C   -0.14986913031724     -3.41957385279481      0.13426969181686
  N   -0.35042489305680     -4.56324695845625      0.18986591243982
  C   -0.65755372214048     -1.04839945871384     -0.04440246801934
  N   -1.91177202562881     -1.46187509103429     -0.22971884667810
  C   -3.00969136320534     -0.74349246527196     -0.32824691511966
  C   -3.25581477392613      0.61385112496448     -0.13862404636833
  C   -4.59449165789637      1.05377501512873     -0.21706326442974
  N   -5.67748394447320      1.47583006496824     -0.26183938911294
  C   -2.25393147520612      1.59636415872810      0.15437383954766
  N   -2.66168076681166      2.83954421177732      0.46445383186902
  N   -0.93746274770785      1.45029927206802      0.11857599061684
  C   -0.18378777624973      0.36945512119537     -0.01904285421340
  C   1.20460921151091      0.55827873437748     -0.09454421931431
  C   1.94136777332414      1.75801693575218     -0.16305666534255
  H   4.37445215341705     -0.50419787004320     -0.01033173922339
  H   2.18141816222486     -3.82899217526144      0.27233195619572
  H   3.52487310084937     -2.75602871837338      0.18419981684583
  H   -3.88787907539170     -1.33264262828248     -0.57485184544303
  H   -1.96173423508061      3.54520205945527      0.60499516907304
  H   -3.63293295814196      3.09249815017319      0.50184694130659
  H   1.53047008454037      2.75022884190171     -0.22391084085680
