27
Coordinates from ORCA-job ./opt_b97-3c_parallel
  N   3.95526242115852      0.42508317191127     -1.29446936729293
  C   3.05048714261043     -0.04968148492559     -0.74026615531938
  C   1.95677956954140     -0.74558798412262     -0.16384807413056
  C   2.20415813034066     -2.09981105448968      0.02484257789845
  C   1.32222097422699     -3.11339345428172      0.35723114677654
  C   -0.06022450688277     -3.01375231800100      0.40590721380364
  N   -0.87638772397098     -1.99848695849826      0.19681072415820
  C   -0.58041000594010     -0.67649434544713      0.05523597442896
  C   0.73350386414179     -0.02178695612830      0.08295740675784
  C   0.76596495345641      1.37749194167977      0.23518959318548
  C   1.95697740034175      2.06496440963066      0.57438326643668
  N   2.85692152903335      2.70011764199852      0.94256930656695
  C   -0.39558230877861      2.18896812108102      0.14026355341253
  C   -1.60103599118437      1.59742511620439     -0.07145039622496
  C   -2.93144314242714      2.11279071419888     -0.17726883355341
  C   -3.81071815617476      1.06001312583595     -0.25238451750712
  C   -3.06960516393433     -0.16311147588560     -0.18168401075555
  N   -3.54640416101253     -1.40572603144378     -0.18128063888397
  C   -1.68287399948290      0.16215765018511     -0.09790332335490
  H   3.23248431675536     -2.39823622033893     -0.13570950638118
  H   1.73805292890487     -4.09928322526095      0.51443144633228
  H   -0.58557274400153     -3.94207843111057      0.61895255750576
  H   -0.29082205383472      3.25919945811870      0.24716149638856
  H   -3.19332946320078      3.15902135973184     -0.18369101351809
  H   -4.88366704452762      1.12592054194383     -0.34325988688565
  H   -4.53175070368353     -1.59522124962484     -0.14660010250594
  H   -2.85332555937479     -2.13402443926085     -0.02272459423829
