32
Coordinates from ORCA-job ./opt_b97-3c_parallel
  N   3.78986653137148     -3.22247970899523      0.62047574231477
  C   3.20790856160352     -2.25458492185959      0.33654035141386
  C   2.44889513738453     -1.10767238558782      0.02067815020316
  C   3.12413604124254     -0.06828126890905     -0.64268913874134
  C   2.72829709869544      1.20431635934763     -0.88913549560934
  C   1.57874729217329      1.90095337431819     -0.41963846859976
  N   1.69119400355337      3.24758796928961     -0.56161770581278
  C   0.39643284420029      1.31935433629538      0.10779238317311
  C   -0.70707018773610      2.16396302552250      0.48718575210106
  N   -0.49640932814213      3.50669327121058      0.86412986215313
  N   -1.97441709721861      1.81259947831612      0.46600176387809
  C   -2.27885003198754      0.56538273436591      0.08198060409468
  C   -3.52413532205214     -0.00260455272488     -0.08229691019343
  C   -3.31796993730335     -1.38189227983545     -0.36221667421086
  N   -4.32545134841993     -2.28121407255400     -0.58529491212676
  C   -1.94922795072089     -1.68757440622742     -0.31593802867611
  C   -1.24930420022842     -0.47983112603686     -0.08036785165382
  C   0.09147776810670     -0.11849438379875      0.03075075123546
  C   1.06779427139959     -1.16005157325785      0.29162000814859
  N   0.59402637712643     -2.29911983172169      0.82644814254839
  H   4.12172557189617     -0.32144038332713     -0.97962129919793
  H   3.45116365500029      1.82007110693264     -1.41046709366518
  H   0.88158388422098      3.83419929108348     -0.39970529421410
  H   2.44380798259612      3.60545092343194     -1.11885461651882
  H   -1.38490863571772      3.89712322834614      1.14550957588578
  H   0.18287994519229      3.60963964788187      1.60607533714081
  H   -4.47341024838618      0.49832182241091      0.01776380406620
  H   -4.06648062298173     -3.14826395367552     -1.02380092484838
  H   -5.19179255976088     -1.90594505548097     -0.93060725941565
  H   -1.53083834331353     -2.64028561051111     -0.59796056790857
  H   1.21829528575527     -3.04420844356739      1.08199192966745
  H   -0.36792249784915     -2.34861333018043      1.11849235767082
