29
Coordinates from ORCA-job ./opt_b97-3c_parallel
  N   5.55612321801532     -0.78808026685351      0.28700553103051
  C   4.49920321100717     -0.31792595297794      0.16880252641758
  C   3.23594594475443      0.26668386071315      0.02285854940690
  C   2.95145157383229      1.62663735103802     -0.18691071462743
  N   1.63348044081185      1.88046567662949     -0.28374153447565
  C   1.00145363904094      0.67691344088334     -0.14373425129327
  C   1.97066529250668     -0.36924585080659      0.05399676455854
  N   1.64598270515941     -1.64540889847320      0.26063604990115
  C   0.35652526080801     -1.92338407390297      0.19504658152890
  C   -0.69940222863960     -1.00222339816406     -0.03851474789140
  C   -2.01470713249510     -1.58526084124652     -0.20966998396445
  N   -2.04521919592579     -2.92296247510347     -0.51815917445455
  C   -3.23636010615880     -0.98332935898288     -0.00737251689604
  C   -3.53489138091891      0.35902703562534      0.25813515363666
  N   -4.85618372949648      0.63782992750599      0.52180702406623
  C   -2.67539648839904      1.44357450798137      0.14585537646777
  C   -1.32495708014801      1.49524607696284     -0.19229963473942
  N   -0.81079905667872      2.69755270237184     -0.48240025381769
  C   -0.37316705992060      0.38448372617789     -0.15020716590151
  H   3.67483632450617      2.42253931564870     -0.27444489252272
  H   0.10452053891467     -2.95276786803129      0.41000719558176
  H   -2.93680287281998     -3.31213573074621     -0.76707957121637
  H   -1.27747816392300     -3.29928083434757     -1.04332557441991
  H   -4.10044912811951     -1.63222479867409     -0.10057168566241
  H   -5.06964677319657      1.54265023656590      0.90183375299506
  H   -5.41415212872391     -0.10232449085115      0.90856958557964
  H   -3.14398319274240      2.41451019763286      0.26841305075723
  H   -1.39621527282529      3.51075083872963     -0.41036963246357
  H   0.22111420527517      2.79782185979498     -0.50022396678171
