24
Coordinates from ORCA-job ./opt_b97-3c_parallel
  N   5.64913866306982      0.46594975834495     -0.25905089173311
  C   4.50973681987097      0.25108231529150     -0.19710400888091
  C   3.12938513097338     -0.01406510308540     -0.12236920513748
  C   2.54647800440066     -1.30461150001895     -0.09064389758430
  C   1.16062753069045     -1.13835281827445     -0.02143533000689
  C   0.12925612605906     -2.04798952781800      0.11446642334039
  C   -1.19089421624457     -1.60412850033939      0.18668865649597
  C   -2.22734584511989     -2.56211524566861      0.27614197756483
  N   -3.08288998358092     -3.34425901244064      0.34855326661874
  C   -1.51830311406877     -0.21794726811597      0.09810849534041
  C   -2.82824549417779      0.15415288333145     -0.16932633302020
  C   -3.35355954095297      1.42794224599128     -0.42530743426653
  N   -2.86980424572921      2.62502656175827     -0.17253941922366
  C   -1.65443435186757      2.82042743585536      0.36188861223923
  N   -0.57647032320026      2.08038483459684      0.38701817932330
  C   -0.41789716320398      0.77318574053752      0.12865278522391
  C   0.88236583943446      0.28593668162657     -0.00681925739080
  C   2.11567606864484      0.95747726229839     -0.05641413592366
  H   3.08706437150217     -2.23654148077477     -0.10242141071989
  H   0.32797350437302     -3.11027599231750      0.15545877392925
  H   -3.53356544335276     -0.65592910070282     -0.30880727115473
  H   -4.34536711148673      1.43455380932903     -0.86858763411505
  H   -1.52047334073753      3.81434732060050      0.77749982253368
  H   2.26185749960173      2.02364123899591     -0.04844279585353
