30
Coordinates from ORCA-job ./opt_b97-3c_parallel
  N   1.72639549178024      3.45738037655232      1.10556437193173
  C   1.09762007502301      2.56479399896778      0.70761658683497
  C   0.22779628458459      1.51922040894193      0.32054992401911
  C   -1.13685637233037      1.85230343844499      0.22952924546917
  C   -2.04121428046413      0.85889793811088     -0.00841467234741
  C   -3.46253442653823      0.81550822495847     -0.20738288715753
  N   -4.30548718702312      1.85200490502965     -0.24342941494768
  N   -3.90471550822769     -0.44016667527578     -0.39653177684638
  C   -2.81748938621845     -1.24095817290782     -0.30675299196718
  N   -2.95822886802117     -2.56563915992640     -0.47440747135495
  C   -1.61357186664318     -0.50561197640450     -0.04505912384631
  C   -0.28380293681226     -0.88358702395401      0.16002835955308
  C   0.04417531420012     -2.22541572423460      0.46915805780172
  C   1.27005684956929     -2.82040376362553      0.66019090340799
  N   2.51790883093331     -2.42487774220270      0.45029958603978
  C   2.86331722650113     -1.22025753190255     -0.01073273740599
  N   4.16756595361755     -1.14807902467826     -0.34081825009435
  C   2.07729260093687     -0.02651406404017     -0.16661467054816
  C   2.78302097568295      1.03854724216465     -0.76325969070317
  N   3.44294702281188      1.81285281353700     -1.33141034715048
  C   0.70073603846178      0.18814157422642      0.13312195512319
  H   -1.42182225043337      2.88809187062842      0.35481600524827
  H   -5.28912295514662      1.68093505697989     -0.34722580475630
  H   -3.99659207660292      2.78832747455184     -0.06693635733802
  H   -2.14883077253902     -3.11736541809619     -0.69970799452788
  H   -3.83925123046514     -2.87849475090752     -0.84672395642976
  H   -0.78877920171472     -2.85207532748460      0.75585667278272
  H   1.21894775602405     -3.83986060485408      1.03589955670740
  H   4.60336512416332     -0.29811550907984     -0.65043907390951
  H   4.72309670179066     -1.96833840861998     -0.18184915508748
