30
Coordinates from ORCA-job ./opt_b97-3c_parallel
  N   4.01603150927649     -2.21037097687048     -0.55868428647592
  C   3.10349815103823     -1.51547476591322     -0.36947242523695
  C   1.96723638687488     -0.70467299065394     -0.14329176326882
  C   0.70058621518065     -1.31239432624584     -0.09272435751102
  N   0.62260795023193     -2.72111074958987     -0.18539363060829
  C   -0.46847043388160     -0.53439511659099      0.08252646999013
  C   -1.72031244535117     -1.18283414086059      0.42542957296856
  N   -1.66727717296901     -2.31243522292758      1.16111808825693
  N   -2.96353795599088     -0.84178403981860      0.09186036369661
  C   -3.43660585782242      0.33380503609993     -0.25844830870885
  N   -4.69355682621101      0.32426398066726     -0.77619816051691
  C   -2.79733383414549      1.59137381043303     -0.10755830487745
  C   -1.46976466532344      1.79655618570919      0.09079079596232
  C   -0.36293710655669      0.90652240190241      0.11123002117848
  C   0.91116573028053      1.49976755284440      0.14204541961993
  C   1.35062425475455      2.83448064250083      0.21942190699840
  C   2.74823271400720      2.82769112282576      0.16577546160883
  C   3.22846414823188      1.51067858585970      0.03920148765306
  C   2.11839423147487      0.67398608659353      0.02438864588725
  H   1.52821454553062     -3.14097739570964     -0.34020520081501
  H   -0.00516990974850     -3.02719967241780     -0.91590906533820
  H   -2.51967921866549     -2.84208531537942      1.22295207889516
  H   -0.78728012425025     -2.81170291139716      1.21099300177768
  H   -5.20139564193326      1.18251542468263     -0.87995483510487
  H   -5.22833390818336     -0.52033014732181     -0.67932365249527
  H   -3.42627277855647      2.46942465992378     -0.19351635749609
  H   -1.18812959386698      2.83670135964321      0.17452733551555
  H   0.74280377493274      3.71818696527235      0.32858081044080
  H   3.36971461055045      3.70981881024722      0.21882256361995
  H   4.25899082338972      1.20463983218996     -0.03881774301713
