28
Coordinates from ORCA-job ./opt_b97-3c_parallel
  N   -5.23445488707025      0.38680194863214      0.06852931124911
  C   -4.10928986706088      0.08191091208136      0.07112864364473
  C   -2.73649419901714     -0.22687642484048      0.06354796831772
  C   -2.37966465449725     -1.58617739831899      0.07706504205382
  C   -1.14912047578111     -2.17418848739229      0.03330645243782
  C   0.14420977807429     -1.59901452683439     -0.01676345244564
  C   1.23396425319916     -2.47396119944356     -0.05964304315123
  C   2.56281084651894     -2.05758220844914     -0.07057539253117
  C   2.83209908071682     -0.71041146855620     -0.03269876905317
  C   4.04660813263966      0.03511626295635      0.00110829912260
  C   3.75087788787764      1.38196836217225      0.06494705522671
  C   2.33450841399727      1.52793791411979      0.06595720680839
  N   1.62711703468943      2.65854518355986      0.11210693915099
  C   1.74444744822134      0.22231653349365      0.00118346181106
  C   0.39835156662730     -0.15183780124377     -0.00513932557073
  N   -0.49803199166338      0.86291433285941     -0.00836959203624
  C   -1.82426290674870      0.86652054805270      0.00281939280643
  N   -2.36671382203694      2.11985468418119     -0.00770599159416
  H   -3.22055781149885     -2.26702878015484      0.11424622178232
  H   -1.15837581858633     -3.25711591884893      0.04171485880777
  H   1.02040199101009     -3.53462797244422     -0.07489065882564
  H   3.35936866531387     -2.79013357980195     -0.09634855713429
  H   5.03749944097411     -0.39215119636685     -0.01465373568235
  H   4.45842913922422      2.19521537897809      0.10610865419315
  H   2.06163177152017      3.54574345728454      0.29033063670000
  H   0.62219327817335      2.53132980717905      0.18137439930972
  H   -1.76792919421063      2.86028214821948     -0.32371056508981
  H   -3.34832874100620      2.22891480852579     -0.19631624820790
