35
Coordinates from ORCA-job ./opt_b97-3c_parallel
  N   -5.39666304208385     -1.06049016782285      1.40327512923612
  C   -4.40965597336154     -0.64713538840548      0.93839073569386
  C   -3.23273571423716     -0.13564651547721      0.36832251596789
  C   -3.18308830210685      1.27054210135013      0.14611677298893
  N   -4.34639823567895      1.95990920340158      0.34791120677447
  C   -2.09261611106169      2.01424374263680     -0.28657298296994
  C   -0.73051759004309      1.70265614140304     -0.36998790597995
  C   0.15546641378241      2.79355370410514     -0.53973485848340
  C   1.52031074922268      2.66262952249343     -0.47106302158872
  C   2.06384315781122      1.41423385219294     -0.22073603318302
  C   3.39354896518564      1.02865390431965      0.07486263793104
  N   4.47843548072118      1.81914711513858      0.11410521474083
  C   3.39679241490708     -0.35384711783308      0.39012223176636
  C   4.51496717016105     -1.10373537012556      0.74680784892432
  N   5.45438406796122     -1.72662250311384      1.04469823401222
  C   2.07815388079161     -0.84930820993737      0.25688735194691
  N   1.74962166242862     -2.10632875089289      0.57584009616477
  C   1.21214053121672      0.26061963882559     -0.12916120739683
  C   -0.17012361863806      0.36270605047057     -0.30662481461543
  C   -0.98317790777268     -0.80456426426454     -0.57444950468245
  C   -0.39055072458888     -1.83319180263876     -1.30995211286231
  N   0.08237039225677     -2.73803406575955     -1.88153820665589
  C   -2.30644054309892     -1.07919944663589     -0.13906350863573
  N   -2.72168544747527     -2.36580641293675     -0.18875931933954
  H   -5.11790841372603      1.50078867827946      0.80005647919809
  H   -4.29182751406211      2.95125137027127      0.49103764650218
  H   -2.31310994332357      3.06461649283748     -0.43862024694602
  H   -0.27614337545195      3.77323747057589     -0.69170055380267
  H   2.14496620368993      3.54247597412685     -0.56674681104403
  H   5.38773818756344      1.40523149807148      0.22239147900569
  H   4.45002449782441      2.73549079807794     -0.29204944328545
  H   2.50945480718510     -2.72021050783743      0.82562359211466
  H   0.99085572226078     -2.56292193415613      0.09442884748894
  H   -3.69450066540069     -2.58913165983126     -0.07769289830745
  H   -2.12930130245821     -3.07587934150975     -0.57973715807847
