22
Coordinates from ORCA-job ./opt_b97-3c_parallel
  N   2.54173560172085      2.38333441574123     -0.21255032695471
  C   1.57687101125338      1.45436293268278     -0.10163320408341
  C   0.22394871897493      1.84542692508897     -0.12121747949357
  C   -0.82305936433162      0.95215178812737      0.00774627168584
  N   -2.03507709307684      1.48579896556091      0.26677975597926
  C   -3.18027397761279      0.84627321080904      0.35005085372524
  N   -3.58085701854888     -0.36574686373376     -0.04402379217453
  C   -2.73931379718647     -1.32901981921686     -0.39166933643693
  N   -1.43066684849682     -1.47967899052825     -0.25710326154023
  C   -0.53336862494076     -0.52277978811839     -0.01085365198037
  C   0.80689953233151     -0.87303181403475      0.12719771445949
  C   1.45951600353969     -2.13083751938381      0.21290131331945
  N   2.78782433258620     -1.99683344495472      0.23124486476571
  C   3.04696133202694     -0.65792938533891      0.13251954029096
  C   1.87397219491080      0.08825756319553      0.07173228108206
  H   3.51021514865688      2.13982435788824     -0.12835491449918
  H   2.31547309518205      3.35612761019971     -0.30287341206203
  H   -0.03138662342081      2.89632311858098     -0.12788911326471
  H   -3.98455963297855      1.45402618096150      0.75607787485605
  H   -3.22769797879987     -2.20421132223657     -0.81201232022603
  H   0.98749827745029     -3.09893754530169      0.26621941847139
  H   4.07068206685999     -0.31269354548899      0.10136404658028
