31
Coordinates from ORCA-job ./opt_b97-3c_parallel
  N   5.78113582275709      0.79934599726792     -1.12669804619170
  C   4.69435143582182      0.48519002974336     -0.86166664580441
  C   3.38497717728389      0.08796571698158     -0.53979174763133
  C   3.00305879588350     -1.22315488383469     -0.14743010477617
  C   1.62663291022262     -1.22581510494455      0.03412581944989
  C   0.74693164648084     -2.26234436435870      0.41074511519132
  N   1.18886471110859     -3.48304084825256      0.73745148291735
  C   -0.64185532508036     -1.99527736288014      0.38118179655415
  C   -1.52936397631143     -3.06982113096556      0.57635133229081
  N   -2.16169020316142     -4.02676215068990      0.77010176194749
  C   -1.16082676724344     -0.72953356946815      0.01914434752938
  N   -2.43765790716102     -0.70564239273234     -0.29973053161095
  C   -3.20829534780801      0.35209123360739     -0.55179785429658
  N   -4.27622974102025      0.08906921201627     -1.33187738070635
  N   -3.15245342467987      1.59021349284596     -0.06303834436047
  C   -2.05258805706691      2.16886615296699      0.37978248783138
  N   -2.25496356454951      3.34209159306958      1.00772477116446
  C   -0.68101266858246      1.73032566957953      0.20952477957455
  C   0.26291772953084      2.74700987082145      0.46841631041600
  N   0.93539967302778      3.66065508605200      0.72713324333154
  C   -0.22812536965127      0.42695641559690     -0.04758386426553
  C   1.13151804211584      0.10687352505940     -0.21727589744273
  C   2.24799491467867      0.90105647934532     -0.56874704211979
  H   3.69126877702933     -2.04508883698745     -0.02995323499568
  H   0.54204887690854     -4.23083151490062      0.92259032881061
  H   2.16405854824885     -3.70831196596339      0.69096889420591
  H   -5.00059727243401      0.77946668539977     -1.40538867173291
  H   -4.49403112595669     -0.87080428522819     -1.52900052643230
  H   -1.49552182431641      3.93512153695475      1.29013879331259
  H   -3.18787818119436      3.71190752631888      1.01060596444624
  H   2.24812506931853      1.93502071628031     -0.85970147811293
