31
Coordinates from ORCA-job ./opt_b97-3c_parallel
  N   -4.83704866915162     -1.57575762429595     -0.27058101027873
  C   -3.85970235423445     -0.94724868075127     -0.18853561750148
  C   -2.70020663411723     -0.15262435710780     -0.07237428758889
  C   -2.94955785917951      1.19520341843059      0.25404416387302
  N   -4.21365314175234      1.56721086436261      0.55059493751045
  C   -1.98694950850158      2.22944431201708      0.23840351790856
  C   -0.64978193165622      2.13380791825581      0.05125086236822
  C   0.22839784222788      1.02549008847428     -0.04830072884599
  C   -0.12259738017836     -0.37672899135767     -0.03247404372984
  C   -1.46156738191815     -0.82728413956617     -0.33372005687123
  N   -1.59423415335821     -2.02882060723375     -0.92113006435732
  C   0.92882414815301     -1.33262012803610      0.11395311090573
  N   0.63733690882819     -2.70585567752588      0.28343213060338
  C   2.27734404595089     -0.94910480917226      0.08311982363470
  C   3.27596500281226     -1.93082696981434      0.27529650353081
  N   4.07831081400423     -2.75663305364302      0.43561321814022
  C   2.63911659483781      0.39308421112467     -0.09458255859282
  C   3.82957374462282      1.10443160370929     -0.15942720684221
  C   3.43457159051735      2.45516453345691     -0.22014841689911
  N   2.09915815329106      2.63596617191657     -0.19076247970384
  C   1.58209659645071      1.38250352961793     -0.12269452801856
  H   -4.43502231619145      2.53817387832745      0.66363256854328
  H   -4.98376051014113      0.92560552507583      0.47789420187218
  H   -2.37992258659530      3.22900260697299      0.38311914554299
  H   -0.11125859478812      3.07299408228312      0.02687847692813
  H   -2.50598419884699     -2.42847953547709     -1.06332163218158
  H   -0.79381438704789     -2.65421595597577     -0.92032135458305
  H   1.47433051274748     -3.26203562791928      0.38773322509170
  H   0.03266422793461     -2.87873839506998      1.07506913800347
  H   4.83352939348791      0.71366635517283     -0.14953392271852
  H   4.09221415409258      3.31078263294850     -0.28589095594366
