29
Coordinates from ORCA-job ./opt_b97-3c_parallel
  N   0.21052366064317      4.39714955018743      0.92242204766109
  C   -0.07782726402429      3.29676007709475      0.68781634901324
  C   -0.50168605223513      1.97488216937183      0.41891048815648
  C   -1.86427431482023      1.69160199968801      0.38572327971278
  C   -2.26764085515669      0.42750642259422      0.03377338115638
  C   -3.54079956957847     -0.16977020213075     -0.18321050137904
  N   -4.75340222921930      0.38078202628098     -0.07532347349160
  N   -3.42238190334951     -1.47439011859114     -0.56644636346139
  C   -2.11675891428311     -1.74357606267224     -0.57129691931063
  C   -1.31398782402811     -0.61724878098609     -0.21033278782939
  C   0.06768812120270     -0.41001943097486     -0.05158884877080
  C   0.99181547652195     -1.48006649569191      0.08225511902093
  C   0.48588303639027     -2.78485551958293      0.21568469401249
  N   0.16266299964335     -3.89674700459275      0.34760273577414
  C   2.42294374249681     -1.40636905287796      0.22691081257275
  N   3.06321701719402     -2.52007594358537      0.63785704800581
  N   3.24290126751649     -0.39821793334682     -0.03145283863009
  C   2.84441451261373      0.83854946268533     -0.32480636672575
  N   3.79603482780351      1.61748689902292     -0.88403796612333
  N   1.70216694336521      1.48330441968569     -0.09051263495715
  C   0.48986299249846      0.99450220611473      0.09850016361704
  H   -2.56650986910832      2.48803032468532      0.59526642942271
  H   -5.55912986562854     -0.20435051527739     -0.20738103297338
  H   -4.88719845456679      1.31107792381354      0.27218208590272
  H   -1.78139752454289     -2.72386597160918     -0.86233826234167
  H   4.06606118226027     -2.50560534801943      0.62078518133157
  H   2.58708906729766     -3.39301031489418      0.77545422665934
  H   3.63327385228010      2.60732618526495     -0.91893134039464
  H   4.73603925671369      1.27029493084322     -0.93049810223063
