33
Coordinates from ORCA-job ./opt_b97-3c_parallel
  N   5.67803191418668     -0.50439147290002     -0.53489397194420
  C   4.53891795784138     -0.34202434067391     -0.35267031997007
  C   3.17299800340797     -0.06854186737383     -0.14059731001308
  C   2.34432970831890     -1.12451701041405      0.18633980829291
  C   0.96342907758856     -1.17818443935008      0.35873117564446
  C   0.52256015973476     -2.38303983978121      0.93343091319219
  N   0.15884409421668     -3.39382822599672      1.38980113078500
  C   -0.01843920851603     -0.14734922571799      0.10248718271216
  C   0.34833976419154      1.27110798092105      0.20302560002258
  C   -0.66833315619326      2.20740906758876      0.37859234076146
  C   -2.02580051157949      1.89914080285285      0.28903937162087
  N   -2.98575658785762      2.89942794777863      0.41203078748209
  C   -2.37616349739532      0.58103145066218      0.04097643385192
  C   -3.64554250977516     -0.02102173930828     -0.18196660777174
  N   -4.84759591152918      0.60980972814388     -0.03669963774972
  C   -3.45380093828178     -1.34594673484338     -0.58476399470187
  C   -2.08635680758380     -1.63279947136399     -0.55011646825293
  N   -1.56061690501188     -2.78836756547899     -1.00206751915402
  C   -1.36457807139183     -0.42621851413161     -0.11539141285089
  N   1.57796933566377      1.82496991051650      0.09266196237103
  C   2.75400935291939      1.31274001761406     -0.16761898159511
  N   3.71013515304482      2.22594467866306     -0.47465151887618
  H   2.85339945689285     -2.06677539103055      0.34463653018639
  H   -0.35605491362322      3.23673885934390      0.48717097329727
  H   -2.59268721363721      3.82697661206192      0.43616466218804
  H   -3.71780318623524      2.85082136328985     -0.28084908881245
  H   -5.65774312987855      0.01285755358346     -0.02284906999083
  H   -4.88085430327807      1.33014659213315      0.66779353095811
  H   -4.23030601751827     -2.04952795756946     -0.84189587400733
  H   -0.73190878481063     -3.15792205531391     -0.56193822014381
  H   -2.22382203036577     -3.50252626540248     -1.25327919345257
  H   3.46972115334049      3.19071320248316     -0.33768972376538
  H   4.68131039281539      1.97182324420905     -0.50854127141411
