26
Coordinates from ORCA-job ./opt_b97-3c_parallel
  N   -4.64355431999354     -0.77052964402588     -0.08358899004932
  C   -3.37515055476371     -0.28653662302541     -0.02989088014672
  C   -2.33702819140418     -1.22402810683531     -0.02945734737502
  C   -0.95553076981547     -1.01965710285752     -0.01077574933680
  N   -0.20925712091610     -2.15908007341835     -0.01331651101387
  C   1.12037490937651     -2.10484169803243     -0.00665563070889
  C   1.80935158002225     -0.91210776537844     -0.00069324845409
  C   3.16886295577849     -0.47482423771917      0.00674447557993
  N   4.27660876337942     -1.23925807301798      0.04071420295428
  N   3.27697383717476      0.87507747376950      0.02265474539557
  C   2.01394845224393      1.34891721828499      0.02531595098755
  N   1.69892612284554      2.63752141558770      0.03744250432372
  C   1.04234460749045      0.29006438638135      0.00744685546709
  C   -0.33408900037916      0.30616833113804      0.00644415676347
  N   -0.94245756922669      1.53416128492673      0.02312628046370
  C   -2.23627102537335      1.78149706463881      0.01789096184860
  N   -3.34860006757795      1.06107761639874     -0.00489822657913
  H   -4.83126166920201     -1.74145254707258      0.08156775826789
  H   -5.38419986625218     -0.10904282945306      0.06500970953683
  H   -2.62017159351862     -2.26851529126347     -0.05323747901924
  H   1.62619253894635     -3.06678452427476     -0.00342877854415
  H   4.21505989921751     -2.21049886155946     -0.20113551521374
  H   5.15474059816862     -0.78243898895181     -0.13270667994210
  H   0.70612599344315      2.85163067457067      0.04355072097885
  H   2.41185425804778      3.34421889040754      0.06222753492251
  H   -2.44901034201180      2.84927668888159      0.03905809169309
