30
Coordinates from ORCA-job ./opt_b97-3c_parallel
  N   -4.92344559294246      1.65554139038498      0.54334337731642
  C   -3.85105292074619      1.23455787797054      0.35820308640654
  C   -2.56304200250080      0.72835750035471      0.12850013277045
  C   -1.53518669948248      1.68490823577552     -0.15726888835883
  N   -1.94325936707285      2.95670932170801     -0.38875268478164
  N   -0.23130706735953      1.53577750757807     -0.21302056687571
  C   0.53491659663721      0.44664383805724     -0.07969551310336
  C   0.12958689582170     -0.96518331912157     -0.10180643360805
  C   1.14149763476060     -1.94886387144591     -0.10211199919106
  C   2.49186358910003     -1.66694619253379     -0.01819033642119
  C   2.89181881858980     -0.34754913867599      0.06347137860858
  C   4.13882239354716      0.33566137481153      0.15047036939422
  N   5.37200270039102     -0.17412909502581      0.20594793540046
  N   3.97000178469240      1.69739890574100      0.16903292740150
  C   2.65676950794311      1.89901063618265      0.09129462121546
  C   1.91402065680157      0.68382800727627      0.02992641607926
  C   -1.22373049254123     -1.40913899267947     -0.13322261691391
  C   -1.42657647444845     -2.79926978392017     -0.26773062539876
  N   -1.66006740197020     -3.93546334646452     -0.37460892895646
  C   -2.43287582638608     -0.67608234101394      0.06500022219532
  N   -3.56657267226759     -1.39475645476247      0.20363326608037
  H   -2.90142905888402      3.23692905392492     -0.28646814075259
  H   -1.23142059251621      3.66232523532900     -0.42995088717088
  H   0.84377036643901     -2.98516372765576     -0.14712604853088
  H   3.19870996005453     -2.48798909803345     -0.01180482028910
  H   6.15256851191699      0.45332103141602      0.28186063038900
  H   5.54072520979249     -1.16160171353046      0.22378894078819
  H   2.25013559574061      2.89819188126408      0.08506394492683
  H   -4.45776580650014     -0.93828467732865      0.27762516080227
  H   -3.55292155671004     -2.39807815308243      0.16847280737734
