31
Coordinates from ORCA-job ./opt_b97-3c_parallel
  N   -5.42545528604636      1.01548705882197     -0.14067551738859
  C   -4.30582294475302      0.69786306921566     -0.07885814689032
  C   -2.97021192162181      0.30535309995930     -0.00935015201942
  C   -2.49823851412318     -1.03246869451605     -0.06108917722690
  N   -3.29023849724719     -2.13781542880385     -0.13919789451288
  C   -1.08556645037185     -1.01009893971956      0.00193187161835
  C   -0.12861604732963     -2.00910066107761      0.05921725537755
  N   -0.46099470446504     -3.34693424494118      0.11231603513974
  C   1.22169768228736     -1.61934247018145      0.02265928564151
  C   1.66710157528911     -0.30371111579269     -0.00478755055842
  C   3.09638985895608     -0.07981413600045     -0.04309032703869
  C   3.92240110982260     -1.22860174621204     -0.07240174160792
  N   4.59901078944253     -2.17526847822518     -0.09289741041122
  C   3.78957414844412      1.12497586246306     -0.05886181762018
  C   3.31162992427876      2.42109274947248     -0.02999178914040
  C   1.97762245099542      2.81369456217399      0.02672204670339
  N   0.85477646019914      2.13092200464493      0.05070961266238
  C   0.67091640607698      0.77297083012550      0.02356534564966
  C   -0.65657380833498      0.36118736652672      0.03085731397061
  C   -1.84590432277769      1.17003835616040      0.04109797834117
  N   -1.84613470950638      2.49608888012539      0.07434609556732
  H   -4.26265030365861     -1.96778721709067     -0.34287588589642
  H   -2.91233151185874     -2.91960965127089     -0.64968878878262
  H   -1.26643322671322     -3.56741513149991      0.67607522599865
  H   0.30813259468417     -3.96689650880211      0.30774097992134
  H   1.96302481703337     -2.40610773754432      0.03968586632878
  H   4.86720994134786      1.02242216579795     -0.09717552524436
  H   4.04306072688735      3.21740291952409     -0.04511729967745
  H   1.81781407941425      3.88996815212374      0.05657526590505
  H   -0.91905505697595      2.92140481609554      0.08015298785179
  H   -2.69932321717553      3.02666636704720      0.06184887193851
