32
Coordinates from ORCA-job ./opt_b97-3c_parallel
  N   3.32806064416394     -3.62349003836794      0.37515490271205
  C   2.85127374154036     -2.57534091412719      0.20749625843336
  C   2.29289231315420     -1.28879223453173      0.01045458432964
  C   3.19469985357588     -0.35727650758577     -0.50407037060083
  C   3.07808908648484      0.99490962192130     -0.72458083285195
  C   2.06467597853836      1.83067737657537     -0.24012996082492
  N   2.31558474077206      3.17364138783576     -0.27095620641181
  C   0.82091625087582      1.39409522202137      0.27679871568725
  C   0.13147614550866      2.34657600043071      1.02662475001798
  N   -0.42646036111907      3.20290610315922      1.59874620959745
  C   0.16310371809590      0.10783910078268      0.07554558328391
  C   0.87052718429575     -1.15760071567544      0.17613775381214
  C   0.12881640031477     -2.32420070896913      0.40696890687597
  C   -1.25438794899185     -2.34679114159953      0.38228613539997
  C   -1.93569746684189     -1.18513725520298      0.11117697414707
  C   -3.32518082013851     -0.94299397194747     -0.13691180891107
  N   -4.29435660112421     -1.88334025421614     -0.08965538393097
  C   -3.48635240284160      0.39572804642691     -0.49787025801802
  C   -2.24049993689201      1.03321850755974     -0.44321992693680
  N   -2.04989470093573      2.31141541376536     -0.82049649779053
  C   -1.22364500132679      0.04635088030902     -0.05972530721971
  H   4.16021369081360     -0.77449894994469     -0.76356324824297
  H   3.93194103051664      1.48641573306358     -1.17323113314481
  H   1.70800215415143      3.78680846579246      0.24592193474080
  H   3.27651872287436      3.46376161071995     -0.30075558751442
  H   0.66130204198856     -3.24863144644831      0.56955496652854
  H   -1.76745090949094     -3.28966461886863      0.52900658964260
  H   -5.25480361665554     -1.59179141001888     -0.10169540666996
  H   -4.11510454000541     -2.74018020214372      0.40144638012264
  H   -4.41604087750821      0.87507166964483     -0.76247951986878
  H   -2.88084384386073      2.83189849558247     -1.04764405644257
  H   -1.35000295023261      2.86441110905688     -0.35028689265132
