30
Coordinates from ORCA-job ./opt_b97-3c_parallel
  N   -5.69206407791464     -2.43978910007754     -0.00019707778498
  C   -4.70067153464374     -1.83160597861366     -0.00026966640135
  C   -3.49166921190501     -1.10018445162377     -0.00023114751707
  C   -3.56167072959666      0.30562459534956     -0.00001100821858
  C   -2.54944477956669      1.22263810985648      0.00008629633509
  C   -1.13988999147648      1.04784699928002      0.00000023077950
  C   -0.33001632129284      2.21469023503967      0.00017372779572
  C   -0.92847293635040      3.49649943188258      0.00038907686768
  N   -1.38871203921410      4.56339678177132      0.00049311199673
  C   1.08039598124548      2.17774061022329      0.00013550965106
  C   1.70482999691455      0.96817066116941     -0.00011678845500
  C   3.08923311832702      0.59082318679855     -0.00028282666163
  N   4.13987216639994      1.41696818342277      0.00046636817005
  C   3.15869146114822     -0.81938311028587     -0.00039015860423
  C   4.33216810136724     -1.57346801505813     -0.00066060203392
  N   5.31779843848031     -2.19373295024653     -0.00089216389448
  C   1.83085607467881     -1.33736065692829     -0.00041063310637
  N   1.46832572461072     -2.60962351014623     -0.00063744709642
  C   0.91753512608387     -0.23483069119257     -0.00026095658467
  C   -0.47249898332395     -0.24535338460455     -0.00024918558959
  N   -1.04079603326023     -1.49676529837010     -0.00042615088306
  C   -2.30216358613528     -1.84738073800981     -0.00041701849667
  H   -4.56235417755384      0.71880261252450      0.00010545878040
  H   -2.87594938067151      2.25306993819775      0.00027691753623
  H   1.61860644749710      3.11569211003350      0.00038055932338
  H   4.02541564684266      2.41233804280560     -0.00253209574363
  H   5.07752118435776      1.05711245579290     -0.00192032361098
  H   0.46180418030642     -2.77029774507158     -0.00062409922770
  H   2.14161829840704     -3.35623519069349     -0.00069145273231
  H   -2.44780346706175     -2.92463224792578     -0.00058211849319
