32
Coordinates from ORCA-job ./opt_b97-3c_parallel
  N   5.15765312703469      1.12444561582758      0.07794101653889
  C   4.10332512285003      0.62787950142420      0.05769938294512
  C   2.88614869219932     -0.05110189223597      0.05448465640000
  C   2.75237145095189     -1.47130025777071      0.20720872921977
  N   3.81756706361348     -2.30888638004923      0.34198874172232
  C   1.40435638827514     -1.82737206678061      0.14614191780220
  C   0.63811424175717     -0.63749898648538      0.00133213494787
  C   1.59230390551086      0.47348165453266     -0.05328876813007
  N   1.25060331666957      1.74533350162209     -0.25055459897616
  C   -0.03853067725820      2.03857925838611     -0.25583478300276
  N   -0.34372047568456      3.38674563854008     -0.39453680080144
  C   -1.08777463697703      1.07728436548572     -0.06617958106206
  C   -2.33660890735840      1.59082847585256      0.29257562069528
  C   -3.55824989369640      1.00098729251551      0.51100482133299
  C   -3.92511120860694     -0.32043854089212      0.23013193493294
  N   -5.25406387273174     -0.64152806682460      0.35868133190288
  C   -3.07984861077319     -1.32060618452671     -0.25201401023233
  C   -1.69425335553929     -1.36548537321806     -0.37038858023270
  N   -1.18755555820484     -2.55612872263031     -0.79587789177853
  C   -0.71992004102075     -0.33143878553127     -0.09807925143610
  H   4.68757628499501     -1.89233909173119      0.62921183318450
  H   3.64616840085456     -3.21905963747530      0.73065681603533
  H   1.03983339165411     -2.81792845623659      0.36122629871662
  H   -1.06022876981468      3.60179563005331     -1.06824901197894
  H   0.49558630407831      3.92045307425548     -0.56073550884933
  H   -2.32277444671287      2.65391268215514      0.49798904608557
  H   -4.34352495587050      1.64909918103098      0.88185490540851
  H   -5.49630313516244     -1.61011751322157      0.46779829238246
  H   -5.83079224990524     -0.01384817636145      0.88957961236849
  H   -3.58278557936265     -2.24347481161544     -0.52359192025103
  H   -1.81926099830654     -3.21223920014346     -1.21853622463888
  H   -0.24543274075811     -2.56072370055116     -1.15570666955132
