29
Coordinates from ORCA-job ./opt_b97-3c_parallel
  N   2.89031782295153      2.81755665582877     -1.51698120574948
  C   1.99187427565850      2.28222785109753     -1.01182326350305
  C   0.81892930660352      1.68450497494030     -0.49384756218841
  C   -0.30633945201454      2.50552508579873     -0.35111802141109
  C   -1.48482986454707      1.94327650180031      0.06076183262970
  C   -2.73291793877713      2.49268791866045      0.44031410397618
  N   -3.60189183578430      1.56290038507197      0.81416050300470
  C   -2.98062159504582      0.35185031626488      0.64867740162196
  N   -3.63860491750208     -0.73521102153416      1.04007804076926
  C   -1.61982534256721      0.51785008280891      0.17330446261419
  C   -0.54565542751990     -0.33092564390552     -0.10345946803884
  C   -0.71796762081606     -1.71435956915279     -0.44130925660082
  C   -1.97771782233944     -2.11852237334104     -0.92213875502085
  N   -3.02239243300512     -2.46520920707154     -1.30476778342800
  C   0.24711122619224     -2.73055955586738     -0.52408252159495
  N   1.50049896886113     -2.79396571707758     -0.16505618394718
  C   2.23691041128576     -1.76678652067775      0.28986136475289
  N   3.38270092400708     -2.16765591369341      0.86237761745407
  C   1.98257287469833     -0.36680369116631      0.16935686135193
  C   3.05273865091048      0.43080169592603      0.63282203279100
  N   3.97203034712455      0.95441443901796      1.11810352075168
  C   0.77297504635379      0.29593231762331     -0.18149795939152
  H   -0.21575299281330      3.56518614852849     -0.54270847205102
  H   -2.99909396019136      3.53972129090192      0.45920784915444
  H   -4.59386623506190     -0.57956828275855      1.32154694341792
  H   -3.42710680693289     -1.64263423194449      0.65486672868536
  H   -0.12822060397839     -3.66421071742845     -0.93318362860403
  H   3.59272978561169     -3.14905924117277      0.83445006380096
  H   4.07732018353784     -1.51913744547762      1.18955064615302
