29
Coordinates from ORCA-job ./opt_b97-3c_parallel
  N   -5.32544561802352      0.12419407202867      0.62658766711028
  C   -4.21664143218517      0.39737693454871      0.40046356963575
  C   -2.85729671693149      0.68240184779169      0.13192400414746
  C   -2.58899667228559      2.00181564579392     -0.23763424581255
  C   -1.37648009442392      2.62761385352169     -0.41158644313981
  C   -0.11636087482966      2.07428309264307     -0.25230574041118
  C   0.29225812319652      0.75625519125770     -0.07926105499613
  C   -0.55465284573260     -0.44403042426182     -0.09725365880641
  C   0.09977866345901     -1.67971838763616     -0.29664763814624
  N   -0.61781590494600     -2.87616122631250     -0.51056690767915
  N   1.42583768476276     -1.87665857007027     -0.28194510623931
  C   2.20655560455978     -0.83862453785415     -0.06956454572405
  N   3.54968651131545     -0.87892459016164      0.00545807652972
  C   3.91293936595989      0.41254303570275      0.14088194397643
  N   5.21357064730238      0.73723717106143      0.31319508944716
  C   2.81461004282027      1.32646596897982      0.14384528859723
  C   1.68955796659405      0.53338815350919      0.02369320767077
  C   -1.95013113815229     -0.41897576157977      0.27047783990169
  N   -2.47690565846562     -1.52838717586150      0.80896029100673
  H   -3.46762231607140      2.62499962700303     -0.34609892035427
  H   -1.41308603132389      3.68341078101287     -0.64494892605867
  H   0.69837087541426      2.78387978324618     -0.31547019245756
  H   -1.28100016766274     -2.81706065658393     -1.27082589590547
  H   0.04687473425738     -3.61622329948138     -0.68655935371332
  H   5.88446498774652      0.01173454476142      0.12869858399218
  H   5.51219762944043      1.67938072614617      0.14130918665386
  H   2.88428637391925      2.39509321426458      0.27156485562881
  H   -3.46296034533741     -1.57839817493428      1.00266585126425
  H   -1.94403910557614     -2.39115504133621      0.77249837148070
