33
Coordinates from ORCA-job ./opt_b97-3c_parallel
  N   -4.43793699543933      2.64184077864812      0.36458915692324
  C   -3.71759368646646      1.73206731532945      0.25108322068159
  C   -2.84998905816891      0.63531720452893      0.10563889700937
  C   -3.44831445308549     -0.58306461640507     -0.31961454014205
  N   -4.66094506438181     -0.53565347197622     -0.90918492119439
  N   -2.98995579718391     -1.81028261839884     -0.10713096445671
  C   -1.75269945334665     -2.15188212821253      0.18588642308624
  C   -0.52908733219963     -1.47670700196528      0.11899601102879
  C   0.63325169651917     -2.31730915963669      0.12146634468781
  N   0.50531747996779     -3.70796900569749      0.13010937645120
  C   1.90203008456912     -1.76860353512122      0.13316804392792
  C   2.07541480628262     -0.40116188040105      0.06687173502978
  C   3.24745286174793      0.36288301534449     -0.02642645075723
  C   4.56218989192486     -0.09567217545531     -0.04613927407593
  N   5.67400906899923     -0.44719178555026     -0.07436640795491
  C   2.84870607460199      1.72967531575955     -0.18509436680661
  N   3.72746486789727      2.75549947474108     -0.31647088132548
  C   1.45465471368888      1.81579112858255     -0.13985057182377
  C   0.92896039826623      0.50430343087003      0.01099218971822
  C   -0.36720746963143     -0.02809617039959      0.10230987075064
  C   -1.47436514713092      0.86099865439870      0.36992458632558
  N   -1.16932582384455      2.06895082760684      0.87042175266184
  H   -5.16878309003985      0.32678910863516     -0.99174437189329
  H   -5.17151103223861     -1.39800913993966     -0.97377161151525
  H   -1.68356160953507     -3.19092466501403      0.48533288274580
  H   1.39283378383357     -4.17836994721235      0.05982840667668
  H   -0.13741023555884     -4.08711394979837     -0.54513342191133
  H   2.77054416177387     -2.41663565786557      0.13001126317824
  H   4.67327802848634      2.52777304554895     -0.57204170703273
  H   3.38941016832576      3.62787246749580     -0.68065464589672
  H   0.91065053600164      2.71913266875453     -0.35730485521602
  H   -0.23205652100254      2.24624658720821      1.19238718522905
  H   -1.89349176773221      2.71159894159597      1.13964131519084
