30
Coordinates from ORCA-job ./opt_b97-3c_parallel
  N   5.67228573769052      0.84832593718583      0.01602539719846
  C   4.51663172924011      0.69838113979726     -0.00364326918137
  C   3.13111051797662      0.45025101123518     -0.01729556647365
  C   2.27245059791053      1.55263003706846     -0.05014249178371
  C   0.90311437260848      1.61568947784377     -0.05831113650576
  C   -0.06727073934785      0.59660374855520     -0.02891080573011
  C   0.26693431334210     -0.84700098153612      0.00331030005221
  C   -0.77985978798586     -1.77353571271813     -0.00707057954807
  C   -2.12836260377146     -1.42208534250378     -0.03698686286571
  N   -3.10285393860915     -2.39364597222033     -0.08334291271406
  C   -2.46492246800549     -0.06617003948418      0.01779073772520
  C   -3.70101681947687      0.60143578057884      0.06795168733800
  N   -4.94688092303565      0.01218091536725      0.15318994117132
  C   -3.44496219521905      2.00109097902506      0.00097893815409
  C   -2.08202061645128      2.19810758975311     -0.05270861992523
  C   -1.42602939070673      0.92665543323697     -0.02986522622741
  N   1.48393111402623     -1.41265737315251      0.02679596799107
  C   2.70639977979138     -0.91606036167660      0.01197410643201
  N   3.67792138863194     -1.86778265695156      0.00107894270501
  H   2.77713701564396      2.51041733911877     -0.07062490110001
  H   0.50639921050253      2.62087544964998     -0.08804427648475
  H   -0.49562560625512     -2.81641643646305     -0.02822380123904
  H   -3.93836200606541     -2.13998641410918     -0.58684631087009
  H   -2.77674202017247     -3.31461324688444     -0.32619672107129
  H   -4.99234160197463     -0.79061904463677      0.76286174296389
  H   -5.69617732802702      0.65594005945706      0.35027938737456
  H   -4.20117883945765      2.77143363415873      0.02117099933977
  H   -1.60233767995316      3.16277130868105     -0.08639118404338
  H   4.63959908574623     -1.63041765432539      0.16567762016111
  H   3.37997495780394     -2.81143142745036      0.16653953895723
