31
Coordinates from ORCA-job ./opt_b97-3c_parallel
  N   4.80221719794516      1.82266721458286      0.18705834043657
  C   3.88030867426578      1.11073619394413      0.11876035079451
  C   2.80015594569747      0.23503618916299      0.04713679203696
  C   2.88746090618893     -1.18925884899434      0.06739560819357
  N   4.06818887028853     -1.87979376528279      0.08015983401324
  C   1.60082522205252     -1.73396974640990      0.00743071848488
  C   0.66675881500855     -0.66817432650184     -0.02745243787456
  C   1.43115350022680      0.56694001706735      0.00797916858566
  C   0.78804044321728      1.78595261721171      0.04622014950782
  C   -0.59689343802822      1.86491986820908      0.03060171356088
  N   -1.20129644136779      3.15490834540555      0.03591853452804
  C   -1.38876708217662      0.69495654142849     -0.01777746064825
  C   -2.82483487583560      0.79539041642888     -0.17980854214154
  N   -3.33291587123574      1.79913647258008     -0.91314456255243
  N   -3.74143289367903      0.01773634579373      0.40188728025569
  C   -3.55534690705322     -1.22764268163282      0.77668695741715
  N   -2.66733529812934     -2.11144306551953      0.37685173636588
  C   -1.50474674585740     -1.81278550741898     -0.20043959181285
  N   -0.96447126547167     -2.81407778685112     -0.90728895614967
  C   -0.73646445372172     -0.59656941830541     -0.04011157510678
  H   4.87567250576969     -1.36478002812514      0.39040975870357
  H   4.03589761228670     -2.81934709792837      0.43541763564355
  H   1.39255108397875     -2.78820211847319      0.08271957532789
  H   1.37323671649397      2.69630604116308      0.11062488931463
  H   -1.80553853626894      3.29038420742020      0.83640134668635
  H   -0.49446842713688      3.87462679705912      0.05745579987370
  H   -4.32389263309804      1.95494052431656     -0.83628848295564
  H   -2.73169804571014      2.58506151305389     -1.13163787786567
  H   -4.32293146950889     -1.62228133061129      1.43591328268027
  H   -0.10389160836940     -2.68845062857281     -1.40942184469832
  H   -1.46690779157151     -3.68080880380019     -0.97489766850511
