29
Coordinates from ORCA-job ./opt_b97-3c_parallel
  N   -5.19185743160639     -2.12898329199645     -0.31303531233515
  C   -4.11974479203710     -1.68193386146224     -0.24460747226078
  C   -2.86900508058273     -1.05709662000304     -0.16432685666299
  C   -1.60360920583621     -1.64640707712917     -0.16360009017486
  C   -0.63545778601036     -0.62453926580741     -0.12952735728922
  C   -1.32911003594637      0.63573497742880     -0.07082963912303
  C   -2.70810399018614      0.36857500923122     -0.11802370823915
  N   -3.73436426006283      1.27324142775948     -0.09679435637105
  C   -0.62367183954557      1.82032057338756      0.14786063845684
  N   -1.25001314522346      3.00216011105273      0.36260919374837
  C   0.79759631366297      1.76578418102304      0.08078679571307
  C   1.50134427556550      2.98269072442822      0.18438558528859
  N   1.94939808262406      4.04828388617604      0.31002019056263
  C   1.50555716875742      0.56827842775145     -0.14474593548484
  N   2.79690579877136      0.69802648367278     -0.44741924264242
  C   3.67624249737485     -0.27746966078534     -0.64123654330843
  N   3.69667777725153     -1.55924463408155     -0.34942331346707
  C   2.61136251419583     -2.20876447889028      0.13162506826981
  N   2.89850484684351     -3.41310983977904      0.65890895937620
  N   1.31284978605409     -1.91436340442368      0.10560951304885
  C   0.76098672772331     -0.71928764134789     -0.08171688462649
  H   -1.40103997083579     -2.70221726058015     -0.20908607852815
  H   -4.65207299854326      0.87843612034043     -0.23875327785113
  H   -3.59654557398415      2.10953843516070     -0.64271286573233
  H   -0.68328126164263      3.78904958150077      0.63785510413037
  H   -2.17250348765435      2.97638212165388      0.76324850809903
  H   4.59969214158769      0.07583159847564     -1.09239484269251
  H   2.15211772715133     -4.01888704255818      0.94433361629977
  H   3.84124843083412     -3.75250041369918      0.61634036689607
