30
Coordinates from ORCA-job ./opt_b97-3c_parallel
  N   -0.24344177987397      4.14012004516544      0.39411623760743
  C   0.03409767272493      3.01515807661678      0.30251841005635
  C   0.45296820392583      1.66971143850015      0.19280500508503
  C   1.82033171232898      1.38821921051575      0.18471288619903
  C   2.25227583364347      0.09606838351792      0.02355932521567
  C   3.55801164642188     -0.46911485900349     -0.06730680627417
  N   4.73895313071726      0.20499064626617      0.06151404140373
  C   3.40871030713853     -1.85988567790396     -0.24708634912525
  C   2.05035664397599     -2.16397306348449     -0.26932482157888
  C   1.29788490218191     -0.97791507070592     -0.10225611432797
  C   -0.09153874691350     -0.75472465220245     -0.02036710481375
  C   -0.96399618136230     -1.84261750253118      0.06795252469545
  C   -2.35662210269176     -1.91837705404613      0.10029793509070
  N   -2.89960807429522     -3.18909824933440      0.16844974400874
  C   -3.26293833224660     -0.86097164519359      0.01431277670173
  C   -2.95160168871614      0.48957776599742     -0.12072383709518
  N   -3.99142545841757      1.37054508770054     -0.27906502619650
  N   -1.77571672051394      1.11285057190426     -0.04281973791817
  C   -0.54054716952719      0.65059074117652      0.04670335074607
  H   2.51223254507516      2.21457380830737      0.29285533092901
  H   4.72621192236432      1.19427774983092     -0.11626605345826
  H   5.56152840816546     -0.25051255239008     -0.29380510198352
  H   4.21766124899625     -2.56553613406247     -0.35908841590095
  H   1.65481981223954     -3.15556878202325     -0.42722584484444
  H   -0.46962614497198     -2.80428936971012      0.13050955011092
  H   -3.83866337201626     -3.25446176624773      0.52082838130175
  H   -2.29947151650472     -3.91019878244836      0.52910171695591
  H   -4.31615885912425     -1.11617609789773      0.03779931985657
  H   -3.71324619049094      2.31155446977176     -0.49919472939666
  H   -4.84604553763305      1.04854172411440     -0.69520630635041
