26
Coordinates from ORCA-job ./opt_b97-3c_parallel
  N   -4.51717276766350     -0.66991043595547      0.25123986994606
  C   -3.37981302732239     -0.45800335973081      0.15443987528630
  C   -1.97659978111764     -0.33210958303097      0.04906498521635
  C   -1.18443399373275     -1.49825575026769      0.05778780771275
  N   -1.78968896251683     -2.73221768556419      0.10280408601470
  C   0.23276403082313     -1.40084562980657     -0.04540908617424
  C   0.91265746029951     -2.58894879772978     -0.37079156706745
  N   2.17096502339964     -2.97603131282679     -0.25000052257294
  C   3.20110459976054     -2.22510085872402      0.10470363065469
  C   3.29876954061638     -0.83902865840379      0.16450949813804
  C   2.27908072350592      0.08654408387985      0.07844631349579
  C   0.88692403523326     -0.08589740707772     -0.00106498685660
  C   0.06548145063457      1.04587350650880     -0.05107600278948
  C   0.28156116885970      2.45406495489031     -0.06488309775616
  C   1.49059649066287      3.15281204888941     -0.08111104149732
  N   2.50774321441890      3.72009674650712     -0.08992501468498
  C   -1.00668569126455      3.02754632380366     -0.07354282406719
  N   -1.99689035330905      2.11677372333723     -0.05857047992265
  C   -1.37450816583705      0.92332949849488     -0.04268981020842
  H   -2.79142868431469     -2.72495045473078      0.20935838926604
  H   -1.34981485691194     -3.43723449118073      0.66730980720411
  H   0.27804214273922     -3.36693014714215     -0.78381155428254
  H   4.10379876907408     -2.78917083725376      0.31928916196007
  H   4.29527907766999     -0.44094963224965      0.30882594666273
  H   2.60372785555832      1.11611551696048      0.12369209743261
  H   -1.22266213176617      4.08477181360258     -0.09662977160995
