27
Coordinates from ORCA-job ./opt_b97-3c_parallel
  N   -2.83559179568658     -3.51383752783220     -0.00919734414160
  C   -2.46290445321473     -2.41197935146776     -0.00630556994922
  C   -2.02847187662229     -1.06392258345621     -0.00293299487771
  C   -3.09133677558765     -0.13899947289089     -0.03027509348339
  N   -3.14130677722328      1.16619280727679     -0.02223766464861
  C   -2.02811316907149      1.95511922458715      0.01734782758069
  N   -2.35943239717987      3.26750317983156      0.08179548296315
  N   -0.73438467484530      1.71648644526252      0.00936703700653
  C   -0.06581488515072      0.54819428409039      0.00570073060107
  C   -0.62509535705264     -0.81639850419137      0.01288337573261
  C   0.25024067162461     -1.90940425643373      0.02466501260482
  C   1.63142173663550     -1.77358060624236      0.02172299712972
  C   2.18321822789724     -0.51226102128877      0.00661450266753
  C   3.53058901724986     -0.03799102020780      0.00827605814184
  N   4.64554120901328     -0.79700553718114     -0.01873364065500
  C   3.49478677463252      1.38432927939974     -0.00500486657975
  C   2.17531426478177      1.78580925255994     -0.00824178748076
  C   1.32890056596734      0.63673002226299     -0.00140915544994
  H   -4.07296655199554     -0.60492751021675     -0.06339661208556
  H   -1.63558628707113      3.95562710364859     -0.00295979950454
  H   -3.32061893145941      3.52641115799841     -0.03634519530284
  H   -0.17128378879685     -2.90325086488029      0.03116688430299
  H   2.24214786857373     -2.66926065247087      0.02609424535723
  H   4.58472227420785     -1.78078224378472      0.17054480653231
  H   5.53640021092212     -0.37229654853553      0.16387743652236
  H   4.36117418532424      2.02723879193208     -0.01187444545851
  H   1.82113616252744      2.80325534113022     -0.01116532472549
