31
Coordinates from ORCA-job ./opt_b97-3c_parallel
  N   -5.72672033283035     -2.02797698082949     -0.54044208318375
  C   -4.68953458505951     -1.53356304852080     -0.37424356071592
  C   -3.41805284608022     -0.93412632788206     -0.17537452105342
  C   -3.34101652594874      0.44606509932899     -0.32692656941401
  C   -2.26005633460707      1.29486762716497     -0.14257410769999
  C   -2.57259878864596      2.67808009473886     -0.27752828810518
  N   -2.91446617638431      3.78003055705446     -0.40281190485593
  C   -0.87711753640601      1.01087832829390      0.11121488502426
  N   -0.15032730294500      2.11196603145475      0.27960207112486
  C   1.18531210373658      2.07578300670821      0.31430267680634
  N   1.80486031007283      3.25265602495833      0.58683997256253
  C   1.86877839261223      0.89638723728290      0.03116298636189
  C   3.21795282859122      0.60063391713024     -0.19024352036725
  N   4.26673549376439      1.45669189005152     -0.26103734076692
  C   3.31881350686234     -0.83133420348163     -0.32483657151799
  C   4.53107414028070     -1.48089455136612     -0.59720548493622
  N   5.57588385764560     -1.93500600796236     -0.82880293584793
  C   2.05657466070367     -1.38974678227730     -0.19801196021493
  C   1.11564704359653     -0.33898356778734      0.00802708037183
  C   -0.27337278104034     -0.32536621693719      0.13716560862013
  C   -1.02954536267805     -1.52941363332479      0.38192979150411
  C   -0.32362705879032     -2.66519822436702      0.86644369168386
  N   0.18956364702328     -3.61839202216480      1.28634073215186
  C   -2.37799668665678     -1.78534402007407      0.21945402623845
  H   -4.26755128065882      0.93865853715690     -0.58718400469024
  H   2.69770678768780      3.22433917400161      1.04912778110924
  H   1.19028286718913      3.99722272305036      0.87598400640268
  H   5.14245617664855      1.07500264638622     -0.58256473562185
  H   4.08642785014079      2.39151603087393     -0.58763823522630
  H   1.85116448237353     -2.43899955559044     -0.29197567296657
  H   -2.67463214919697     -2.80548904036924      0.42042519742296
