23
Coordinates from ORCA-job ./opt_b97-3c_parallel
  N   2.52872420933546      2.03830500777209     -0.51063992976840
  C   2.08711924387014      0.84004560913505     -0.08507609416450
  N   3.08506661913682     -0.00170486972614      0.20748740781783
  C   3.03015065780539     -1.30636671574550      0.30882000538266
  C   1.98293051992183     -2.18619360541254      0.01528823128575
  C   0.66254061452363     -1.85998828095919     -0.17149038831559
  C   0.01396492793862     -0.61507336609857     -0.06382125283320
  C   0.67207056126615      0.66437929710640      0.09412752933402
  C   -0.11404307225928      1.80514039978837      0.31638286770507
  N   -1.44653853628287      1.84418975376171      0.37087072195076
  C   -2.08186147983780      0.70498100235802      0.14821200084323
  N   -3.42480099043995      0.55593017890961      0.13061627416001
  C   -3.61231265691401     -0.75772791606506     -0.09412457248187
  C   -2.42217132727704     -1.50250129740458     -0.22335867771810
  C   -1.39316507544462     -0.57526366674823     -0.08217442801527
  H   1.91358726379995      2.70878294047367     -0.93016888304279
  H   3.52176248419264      2.17570292679983     -0.57660411956627
  H   3.96534681590722     -1.75953011747580      0.62632217484407
  H   2.24088740772569     -3.23733342672528      0.00154016846919
  H   -0.00354639932002     -2.69575936998220     -0.34458770026211
  H   0.37699169310266      2.74990220836238      0.51794055704878
  H   -4.61553954300259     -1.15578155821378     -0.16260138350516
  H   -2.35682719244809     -2.56468460411024     -0.39924690436815
