32
Coordinates from ORCA-job ./opt_b97-3c_parallel
  N   4.93439378773499     -0.55498654363931      0.13873217042900
  C   3.84669506889673     -0.14003190514782      0.08762350913836
  C   2.59985517443747      0.48393272886019      0.03659814569990
  C   2.44585580648883      1.90964633214608      0.07208131477431
  N   3.49695685592823      2.77308208103423      0.09367538941190
  C   1.08895668763626      2.23188225892229      0.02355985641869
  C   0.35050973151084      1.02441809274301     -0.02217311222728
  C   1.31321483404932     -0.06935640628247      0.00017116719859
  C   0.85862203162771     -1.38954945161850      0.02738177131752
  C   1.75951155395559     -2.47629636252751      0.10602620792510
  N   2.41976029306365     -3.43033002910376      0.17221141634386
  C   -0.51967696896512     -1.67974466211851      0.00811844577572
  N   -0.93073975780632     -3.03010341148764     -0.00572163174469
  C   -1.46742430645883     -0.63870688968765     -0.03058656575473
  C   -2.87620198469478     -0.94818547488423     -0.19541884417369
  N   -3.23656730778114     -1.98500226760044     -0.96428176701521
  N   -3.88663821873284     -0.33115636012438      0.41916454474841
  C   -3.88067204346731      0.91746881213138      0.82656467630705
  N   -3.14902184775990      1.93259532718871      0.42083784907971
  C   -1.97119334391055      1.82085495229787     -0.18666245406451
  N   -1.61192550408519      2.88223020938511     -0.91651345903165
  C   -1.01984609671083      0.73544351737974     -0.03868370934525
  H   4.39102190637637      2.39366580433591      0.35831305671031
  H   3.32844627055270      3.70635151751467      0.42375216757761
  H   0.70224217058715      3.23286319149269      0.11215218217937
  H   -1.56182007129010     -3.25342948827184      0.75153074565556
  H   -0.14403907736503     -3.66286362900820      0.03553915814092
  H   -4.19625100924630     -2.28202866423738     -0.91038065007693
  H   -2.53157543880498     -2.65877652997186     -1.23402649944963
  H   -4.67693482589686      1.17603216674727      1.51780245037311
  H   -0.74288907004433      2.89497030404943     -1.42004032866600
  H   -2.23725950802534      3.66649024508240     -0.97014863725521
