31
Coordinates from ORCA-job ./opt_b97-3c_parallel
  N   5.22654820202629      1.36540269954444     -0.73242835191633
  C   4.10148020552300      1.14909473243510     -0.53762363654908
  C   2.75038415805795      0.82272958266083     -0.26902879546119
  C   1.82743757211469      1.83885222564874     -0.41626159393450
  C   0.45094598509705      1.89275988323106     -0.18555050444589
  C   -0.05193021421047      3.21338269766129     -0.33479372643030
  N   -0.37821816890409      4.31848209240336     -0.47555706839616
  C   -0.46592050862437      0.83678589198650      0.04848612798492
  C   -0.06590240293719     -0.57476503500888     -0.03818272973569
  C   1.21713805746052     -1.06753155035891      0.35662273600830
  C   1.23469238071740     -2.34518160730882      0.96471061466369
  N   1.36056077963050     -3.34632944087928      1.54362219668512
  C   2.50442987249270     -0.48825934304946      0.23873669369348
  N   3.57271339166436     -1.21748534208307      0.59599990431182
  C   -1.04603606536041     -1.52852808045855     -0.36908816874974
  C   -0.69868239701302     -2.81751268625772     -0.82013568526286
  N   -0.55049985720020     -3.87937885238078     -1.27110457775644
  C   -2.44675524045771     -1.24048829948421     -0.32235380013061
  N   -3.33249723817031     -2.18289415337616     -0.65540503382955
  C   -2.81943049633779      0.03757475029660      0.10214342072312
  C   -4.04876966364456      0.63281356716292      0.38810274180233
  N   -3.89921358149330      1.93485306495737      0.74067518416993
  C   -2.59434121344866      2.21371800549740      0.65433462361108
  C   -1.83218599199490      1.06881769450371      0.26820388894355
  H   2.25658542047670      2.77947902900199     -0.73281304807700
  H   3.47404874292928     -2.16854025713006      0.90720883304924
  H   4.50159388208830     -0.84196020706660      0.51774438765548
  H   -4.31549188339675     -1.98644336624719     -0.66353070502559
  H   -3.03341486578963     -3.09955657194943     -0.94343714248420
  H   -5.03179209388982      0.18448495799562      0.37868675463413
  H   -2.23514017190133      3.19647972515364      0.90106087364941
