28
Coordinates from ORCA-job ./opt_b97-3c_parallel
  N   3.42914839307463      2.72344355794904     -0.10933904679858
  C   2.65695466831572      1.85228930725337     -0.10100276725522
  C   1.88155371220075      0.67208518793553     -0.06239258769853
  C   2.61457199733699     -0.53744813627566      0.15028608860113
  N   3.92968739997189     -0.42236847996503      0.43167199358700
  N   2.19997169530774     -1.79655728614867      0.08045147091818
  C   0.94592645305408     -2.20991206326358     -0.08813218064500
  N   0.85745634591988     -3.56367825718834     -0.26088485240354
  N   -0.23902276079573     -1.60409527236081     -0.04263412752641
  C   -0.48152745089256     -0.27829692635935     -0.03321793025113
  C   0.47989672303047      0.83466042039293     -0.15881961771353
  N   0.07667935856677      2.10665565378029     -0.30774710058533
  C   -1.21803693699613      2.43068474466293     -0.26754035300422
  C   -2.20070096873035      1.49527448990405     -0.04362944819673
  C   -3.62092244099806      1.54150531979664      0.04969989504631
  C   -4.10856610241375      0.25788898509126      0.21628259309140
  C   -3.00539078841230     -0.64019224578321      0.22396655429247
  N   -3.01051742319259     -1.96738016477113      0.34979070936019
  C   -1.80464522300801      0.13007549154423      0.07143138056978
  H   4.47123947280402     -1.26599326199782      0.45970000662467
  H   4.39759038996486      0.46607391652918      0.40786065771830
  H   0.01108887776625     -3.91761398461678     -0.66685243930283
  H   1.71165605951841     -4.03853750988556     -0.49011760796820
  H   -1.44755763457284      3.48061272550859     -0.41427668725255
  H   -4.22075880894470      2.43698187264728     -0.00614692988896
  H   -5.14353765220471     -0.02617966669984      0.32346904599767
  H   -3.86039241868648     -2.49341417294532      0.43819128372142
  H   -2.10500645728423     -2.42208355953417      0.29638528056227
