29
Coordinates from ORCA-job ./opt_b97-3c_parallel
  N   -5.74804542466216     -1.67405029011746     -0.13952274600842
  C   -4.65085031267952     -1.28318090647000     -0.11061864122420
  C   -3.35246894323121     -0.74141802995635     -0.06529019308774
  C   -2.27065105251266     -1.62245723010257     -0.13700541720145
  C   -0.92113560367799     -1.38164489989766     -0.10326649150368
  C   -0.20472422954273     -0.17225297496292     -0.01879069939117
  C   -0.85038677426796      1.15210856989859     -0.03463049829091
  C   -0.02781829839358      2.29817858868524     -0.11868618052491
  C   1.34798606279977      2.24041938557653     -0.12471477608634
  C   1.98540678152811      1.01285930579786     -0.04450562254987
  C   3.34846950523315      0.64900671811132     -0.00843636044234
  N   4.43107368274932      1.45047495722056     -0.01245102767884
  C   3.40736417663956     -0.78542554036847      0.09243333184396
  C   4.60864621353743     -1.50050215558663      0.14998664966225
  N   5.64575498541774     -2.02757644660906      0.18762397452735
  C   2.10604849265400     -1.28098644729829      0.10815463727252
  C   1.20015923912432     -0.19394778529296      0.02125944510200
  N   -2.15452146878664      1.43540425402638      0.04673848073301
  C   -3.23834500695633      0.67720973529830      0.09146101536195
  N   -4.37767936404710      1.37525477924925      0.29509308675956
  H   -2.54947297599160     -2.66415865038122     -0.23281195983105
  H   -0.31138905631048     -2.27160319401507     -0.17186679461893
  H   -0.53743630274482      3.24892830946075     -0.14891537170029
  H   1.91132004081657      3.16531952005832     -0.17475413523828
  H   4.34301185306946      2.41596400307035     -0.26948470105461
  H   5.34182301756063      1.04097631552667     -0.12958173418834
  H   1.86432730900746     -2.32758170125462      0.18679515867998
  H   -4.31186281616625      2.37615767202956      0.30970989878536
  H   -5.28143548036680      0.93836916510377      0.28167903289337
