25
Coordinates from ORCA-job ./opt_b97-3c_parallel
  N   -3.39051107739355     -2.08447140004886      0.59389186606508
  C   -2.68777875792001     -0.98951722098365      0.19008109748480
  C   -3.44227324727430      0.13345549107878     -0.25332718760515
  C   -2.94118020456647      1.39050180171086     -0.45021476706703
  N   -1.75406957348461      1.93178219458036     -0.17049607344306
  C   -0.63121179204086      1.29593177653761      0.13527769559491
  N   0.39859252072437      2.11019869698879      0.46242764100858
  C   1.63852749089362      1.64515744341712      0.43068471401470
  C   1.95470680909604      0.35925224528735      0.02958039577082
  C   3.17121446736979     -0.35566098384264     -0.10216038736312
  N   4.42880029888173      0.14333046629536      0.03440799195675
  C   2.84725340137913     -1.72383033392362     -0.33360068350636
  C   1.47295601985308     -1.86263737127176     -0.33397334736281
  C   0.88175086784442     -0.58519973097567     -0.13062138593580
  C   -0.43553500341331     -0.18607714739367      0.05208734506713
  N   -1.38155423738806     -1.12770665689524      0.22838762639794
  H   -4.37472052482321     -2.14821596026615      0.41445966716507
  H   -2.87823580105257     -2.94280961857429      0.69194609178501
  H   -4.49884934383919     -0.01222329766999     -0.44541368622538
  H   -3.64401703238179      2.11316720835101     -0.85905853849634
  H   2.40863184025784      2.34931941962461      0.73826014669917
  H   5.19307320408514     -0.41572299983146     -0.30055866081986
  H   4.56090308113965      1.13225686764880     -0.08033396426932
  H   3.56901767053827     -2.51402608975230     -0.47628417910378
  H   0.92755003141440     -2.78118277349173     -0.47660372781244
