27
Coordinates from ORCA-job ./opt_b97-3c_parallel
  N   5.65048377999890      0.72755346075002     -0.00525372100347
  C   4.52167105870476      0.44340726362154     -0.00376902124329
  C   3.15368440030890      0.09469318660770     -0.00259659349045
  C   2.83412726641341     -1.29088155332535      0.00408952788136
  N   1.69906649725064     -1.91910456897042      0.00677676939952
  C   0.44054379423517     -1.36142505425501      0.00286560735664
  C   -0.58762786807957     -2.30259610260390      0.00775085521266
  C   -1.94773644734168     -1.97695975623295      0.00356500936773
  C   -2.29860337202242     -0.65443511622842     -0.00558043348543
  C   -3.56818536298563      0.03677470689499     -0.01923720198069
  N   -4.76812111618802     -0.57791406277222      0.01679434994410
  C   -3.33740364291089      1.41310098104565     -0.02081918814902
  C   -1.94496458286076      1.62433152599162     -0.01585211761174
  N   -1.27219221593200      2.76625411582341     -0.02089155506367
  C   -1.27533974763971      0.33902693132732     -0.00898692898119
  C   0.08192300369813      0.05673639649451     -0.00529429392774
  N   0.91575323437516      1.15552406128611     -0.00905990233323
  C   2.22517854918999      1.14663659820305     -0.00776640478326
  H   3.69998894695136     -1.94972493590920      0.00785172485553
  H   -0.27890715317078     -3.33733591862328      0.01591856035718
  H   -2.68190625086996     -2.77358436279177      0.01409462154236
  H   -4.82271335283185     -1.55883359185962     -0.18701926661977
  H   -5.59986550398835     -0.04949143975792     -0.17383567499269
  H   -4.09227754747239      2.18332506644010     -0.02465514344826
  H   -0.25242835566540      2.65844139840983     -0.01682012038728
  H   -1.72927636800211      3.66039650445365     -0.02128786310373
  H   2.66547658373508      2.14080335278058     -0.01151081931218
