26
Coordinates from ORCA-job ./opt_b97-3c_parallel
  N   0.93519956504890      3.17411451856897      1.12481672344717
  C   0.23408205078577      2.32540820453754      0.74073286527280
  C   -0.60792853836922      1.29693915857997      0.27979546379463
  C   -1.92538464585719      1.72573084212484      0.05593975789838
  N   -3.03346419793609      1.10874842340619     -0.27666470472073
  C   -3.17476760439112     -0.23032890514135     -0.28335526753775
  N   -4.40800008967104     -0.62047581116285     -0.68471530694982
  C   -2.27361815782596     -1.23274854623119      0.09882312645904
  C   -0.89344061567932     -1.21160757717408      0.28979137495002
  N   -0.37266146508487     -2.43735288774245      0.57184980767246
  C   0.93582518468702     -2.61751086294684      0.52993783144851
  C   1.81035766944973     -1.61186105479061      0.16402039126633
  C   3.18183425866138     -1.56448217384789     -0.11845390102680
  N   3.58108834087455     -0.34274010923083     -0.49762942866779
  C   2.49177174122759      0.46570001467640     -0.44294559836419
  N   2.60948490535536      1.72391725014848     -0.88264557683277
  C   1.30848266573263     -0.27579878212961     -0.02588138971252
  C   -0.04490235578182     -0.02123023403261      0.14605582417511
  H   -2.05583980363258      2.79922494608604      0.16496305325717
  H   -5.10473253142013      0.09203432304966     -0.80622685097916
  H   -4.70044142895320     -1.57730093408564     -0.62733576570758
  H   -2.68089790740258     -2.23290904374511      0.17601744413930
  H   1.29196163948280     -3.61406396373693      0.77092906034750
  H   3.88718862962050     -2.38133737777022     -0.07010110830152
  H   3.55428996329100      2.00074044389575     -1.09812728136561
  H   2.00978210718772      2.45141292869428     -0.52087999146203
