28
Coordinates from ORCA-job ./opt_b97-3c_parallel
  N   3.84800175793264      1.20313740469164     -0.98687333780711
  C   2.74379180162108      0.86241348377130     -0.27774754317537
  N   2.76120824365788     -0.38188183416607      0.21141161995646
  C   1.69751224223816     -1.10671591773526      0.48060336223659
  N   1.92948852920856     -2.20034099798816      1.23173925455387
  C   0.32047978388722     -0.85491485704221      0.05773358867959
  C   -0.54336623122775     -1.94252478214394     -0.23628693542937
  N   -0.02453784383191     -3.26425395086559     -0.32595965965784
  C   -1.91095858823424     -1.76254564522019     -0.39187798858975
  C   -2.45835917033328     -0.50545639937920     -0.21347961034623
  N   -3.74707470901220     -0.08017568993194     -0.27303529250990
  C   -3.63513935695485      1.23460530321638     -0.02720790241738
  N   -2.39158500541793      1.71978704702551      0.18275785580094
  C   -1.60342713682572      0.61182807222111      0.06367583232714
  C   -0.21158896889470      0.47002715568493      0.13845234610562
  C   0.60158399862009      1.67573184447205      0.26911873347840
  N   -0.02478050279786      2.77976301790503      0.67769623726478
  N   1.87212330283862      1.84090516010073     -0.08915074459922
  H   4.00548929277166      2.18039096253956     -1.15314305197945
  H   4.64636755286422      0.59856685710819     -0.92518225236451
  H   2.89371878192183     -2.44237018048679      1.38285700687725
  H   1.24405267134364     -2.94423810219633      1.21640984220036
  H   -0.75308189981767     -3.91686704215153     -0.57245359197271
  H   0.71511733910137     -3.34371490727582     -1.01093455830977
  H   -2.54684164366402     -2.60304062885081     -0.64392744466938
  H   -4.49939717830068      1.88185555103687      0.01166439185663
  H   0.48375561359040      3.64209347229293      0.57826697649041
  H   -1.05760743398455      2.77708672896763      0.66869050499986
