29
Coordinates from ORCA-job ./opt_b97-3c_parallel
  N   -4.67232295534487     -1.18269685079013      0.06235380133796
  C   -3.38354819062551     -0.71089545407644     -0.00323057993735
  C   -3.23599701846329      0.66921240172982     -0.23633989067901
  C   -2.08694612751070      1.41184198797421     -0.19749404696203
  C   -0.74171610279895      1.07738317285383      0.01169559043166
  C   0.17668282736970      2.18218331970323      0.09576881611736
  N   -0.30617081328775      3.48379058798350      0.20426392025324
  N   1.49784504072938      2.08744552778936      0.03749177884712
  C   2.00223387929147      0.85853852702207     -0.05652426161723
  N   3.30096468730517      0.52939979734474     -0.12574168783372
  C   3.26647862155540     -0.82507866820063     -0.10668987789697
  N   4.41275813773087     -1.55298858437610     -0.11405188563910
  N   2.05211110223500     -1.41284393448270     -0.03119036034592
  C   1.19704312194543     -0.34478295664899     -0.01030183892854
  C   -0.18805537835898     -0.26450971178096      0.04118895040778
  C   -0.96980648720631     -1.48428273023324      0.14790507463324
  N   -0.25692338798897     -2.61676041452617      0.24564576633752
  C   -2.36215268596577     -1.62891174783170      0.19520758447305
  H   -4.82062349161155     -2.16728099391343     -0.06973703766067
  H   -5.39548029137141     -0.60517036599824     -0.32737227893337
  H   -4.14896304169914      1.21446719399111     -0.44481132690716
  H   -2.24645401249541      2.46220648418271     -0.40297780272920
  H   0.46483975211445      4.12337555185185      0.32085728361967
  H   -1.00794875896376      3.62508259719258      0.91202727333873
  H   5.22639437823376     -1.06630000282446     -0.44650437161007
  H   4.32829963717261     -2.51149367821310     -0.40190970866330
  H   -0.72655419249430     -3.50218030637416      0.28938068071944
  H   0.77015232486781     -2.57185576081290      0.18020234593667
  H   -2.69347816206441     -2.65014475813560      0.35659197909020
