26
Coordinates from ORCA-job ./opt_b97-3c_parallel
  N   2.63887336883599      1.67919866825085     -0.71777677001343
  C   2.10778949683450      0.53337873743635     -0.24984112416040
  C   3.03703326262995     -0.52091122150538     -0.06606635038276
  C   2.83631980515487     -1.84821373247382      0.18537627335021
  N   1.71352332326411     -2.58353503834443      0.18681458365106
  C   0.50962661498723     -2.09026513563593      0.04675570572232
  C   -0.03569306179205     -0.77618993337281      0.02316859531428
  C   0.70236274872865      0.48006645791583      0.03453527382371
  C   -0.05455167504898      1.67526756621776      0.17414318842231
  N   0.58402570522022      2.93404757743183      0.36615012115186
  N   -1.37917459191889      1.74843480977463      0.12735534093917
  C   -2.07713924359939      0.62957097405315     -0.00970298392335
  C   -3.46149800632930      0.45578898021785     -0.09273903848903
  C   -3.69362736368130     -0.92474918600315     -0.12667586083908
  C   -2.48086421198949     -1.63430527049332     -0.06890538350021
  C   -1.43846960377475     -0.69913930154098     -0.01390256731118
  H   3.63343467970524      1.75359680906168     -0.82855930986786
  H   2.07807614188285      2.52866461936811     -0.67525467167956
  H   4.07852554477966     -0.22441530824299     -0.13849775630164
  H   3.73392136765198     -2.43453238283782      0.35825104789989
  H   -0.24955653595123     -2.86146108394511     -0.02159084083491
  H   1.09528826703650      2.96435555221174      1.24000386842570
  H   -0.14393970600084      3.63545634734519      0.40036871587993
  H   -4.19768823365686      1.24224072581682     -0.10273182716780
  H   -4.66756961448069     -1.38814706097174     -0.18620743068509
  H   -2.40075121248818     -2.70927028043453     -0.07661647802400
