28
Coordinates from ORCA-job ./opt_b97-3c_parallel
  N   -4.64876591781398      0.48654479238690     -0.04768612726580
  C   -3.32671096722268      0.14129888607538     -0.04074835829501
  C   -2.22895665149892      1.03409010979540     -0.04916404884131
  C   -1.08331076607121      0.22054216268863      0.00160304542842
  C   -1.62830108108620     -1.14468346007455      0.02665940495215
  N   -0.87551112582521     -2.23212165239426     -0.01610672698009
  C   0.43827955420638     -2.04205894465119     -0.04032431601307
  C   1.12106671402624     -0.80979547456134     -0.00636731088203
  C   2.55656679516979     -0.89980120183446      0.00846352827744
  N   3.11650975633460     -2.12038654746020      0.27858183789599
  C   3.47077794310139      0.09720068429090     -0.33477586694790
  C   3.25412282256316      1.45326146365858     -0.45617128204087
  C   2.12243637539157      2.18854474971613     -0.19570239601332
  C   0.83806221710065      1.74093749139089      0.13968124710055
  N   -0.02974623695861      2.71668767628606      0.52064182407542
  C   0.31759974503772      0.40649323383760      0.02011124971399
  N   -2.97377097405733     -1.15635311443208      0.02461143793495
  H   -4.88609261433507      1.37034051008863     -0.46295243154896
  H   -5.26738853449314     -0.26703442236124     -0.29817731561962
  H   -2.31547675333383      2.09427456990390     -0.21630679473762
  H   1.00538196314079     -2.95058238957963     -0.18756101934307
  H   4.11101512529710     -2.14500258907238      0.41014748663811
  H   2.60727736239123     -2.76761059010099      0.84999512076325
  H   4.49966678726602     -0.22638387701274     -0.44306609225106
  H   4.13215186450553      2.03648303981218     -0.70914745969216
  H   2.24306194743014      3.26529890773379     -0.22350075456491
  H   -0.87192082235809      2.43653831390440      0.99728379083153
  H   0.36132951489189      3.59571120006548      0.80762253782487
