33
Coordinates from ORCA-job ./opt_b97-3c_parallel
  N   -5.40438085742470     -1.63760058976189     -0.89106881421577
  C   -4.56003577703370     -0.92399514579766     -0.52861588164638
  C   -3.48968252261570     -0.09487130639064     -0.11686748901170
  C   -3.85515457198925      1.07965697447338      0.54998984561264
  C   -3.06885002507693      2.14660520620214      0.90417031560781
  C   -1.73048395803648      2.34096311929308      0.58182026834032
  C   -0.77720069074527      1.46825371983112      0.07746114088356
  C   0.51207866137578      2.04680424856815     -0.19739481975752
  N   0.61970209201834      3.40830409396089     -0.34508675214264
  C   1.65611673041417      1.24327521859919     -0.22013532532607
  C   2.89766743201800      1.85827404930483     -0.49458088800137
  N   3.86537110300167      2.45330102137397     -0.73844752890263
  C   1.54849157376606     -0.13390397323891      0.02797862158564
  C   2.51562263481108     -1.12747878557172      0.13595752306111
  C   3.90786199071103     -1.03057476453468      0.14801334920083
  N   5.07137989844389     -1.06555988383790      0.18830922815370
  C   1.82205035418170     -2.38647603533532      0.29347484267493
  N   2.47052637065701     -3.56238493525928      0.44505161910876
  C   0.45100300193448     -2.16667643522145      0.22899783862861
  C   0.23070534967491     -0.76817351425535      0.08448154968198
  C   -0.92253821813516      0.01205014574038     -0.00922330143502
  C   -2.18180904219804     -0.60344789212106     -0.36013154967658
  N   -2.11403451516540     -1.79798631339453     -0.96789690763490
  H   -4.91161412340782      1.16465505898712      0.77061020545755
  H   -3.56373416226521      2.96394838989059      1.41074763187822
  H   -1.35260055994846      3.32817401430098      0.81438206909097
  H   -0.08248664805270      3.85697211056101     -0.90684123783902
  H   1.54652457048418      3.75758120697934     -0.53008828285520
  H   3.44818112777334     -3.54294367459313      0.68029967712321
  H   1.96067053647856     -4.36689162206890      0.76043069328189
  H   -0.29252876908920     -2.91804916825459      0.43406795812611
  H   -2.94522424338069     -2.25336838973409     -1.30453894093605
  H   -1.21985731097897     -2.15871957789763     -1.25726383301616
