32
Coordinates from ORCA-job ./opt_b97-3c_parallel
  N   4.40297900388702      2.12337100457639     -0.42616283184150
  C   3.38848621133235      1.57657866951033     -0.27502686317297
  C   2.13427893795313      0.95161951204579     -0.09206955296513
  C   0.99535491185244      1.74966132219128      0.05261715081980
  N   1.12804024712205      3.15641567118190      0.06914069911015
  C   -0.27590881637046      1.14341978134830      0.22159951352871
  C   -1.46380294782036      1.96758423219790      0.43861405771459
  N   -1.34828935870114      3.07672898929692      1.18644336091025
  N   -2.65319330439395      1.75602878684886     -0.09326939045925
  C   -3.08896508193756      0.56907529023425     -0.51774779107502
  N   -4.01299733340424      0.58464184854259     -1.49606288565891
  N   -2.82396353070932     -0.61737578370719      0.02823012699970
  C   -1.66653221857153     -0.90738563835644      0.57608080054725
  N   -1.64435533992058     -1.88706137285243      1.48136667291834
  C   -0.38360313588027     -0.27700066072711      0.23279306656745
  C   0.74181893067577     -1.07452644335327      0.03017880326005
  C   0.96150155744093     -2.48764039086889     -0.11003070079996
  C   0.01284270661532     -3.50685500177798     -0.20273611141583
  N   -0.79160446786416     -4.35007888744689     -0.26093949351588
  C   2.34830132709840     -2.67241084342488     -0.30738507042106
  C   3.00605418929295     -1.44525282666118     -0.29544034649708
  C   2.04208158979499     -0.45005185396353     -0.11013195834188
  H   2.09114267545911      3.44026357816158     -0.04636565011198
  H   0.57720811795473      3.60521613133992     -0.65062120489934
  H   -2.12680991495670      3.71354886214196      1.18762097473101
  H   -0.42286317447337      3.43812957489876      1.37572974683303
  H   -4.41698274857117      1.46307476472789     -1.76349587759447
  H   -4.52309800120523     -0.25880040598146     -1.68486165975669
  H   -2.43985231114020     -2.50222791429490      1.52979950105585
  H   -0.76167788588105     -2.27464262625415      1.76481689702868
  H   2.80694657473321     -3.63526184555146     -0.46913940485267
  H   4.06269154288887     -1.28404340232284     -0.43215706734515
