27
Coordinates from ORCA-job ./opt_b97-3c_parallel
  N   -5.27030671825321     -1.29327553901551      0.00908550561962
  C   -4.24001092923586     -0.75572605194431      0.00667847496153
  C   -3.00555689734966     -0.09130900312427      0.00370826303121
  C   -2.81272174543548      1.30068932065878      0.00055193471270
  C   -1.43985906195196      1.59457727162487     -0.00175309697647
  C   -0.90742924506594      2.88836210543577     -0.00510605453191
  N   -0.43919387228691      3.95510288762717     -0.00774975285621
  C   -0.72577740269853      0.35726492206096     -0.00002509184440
  C   -1.72680591007813     -0.69393367092096      0.00340153238990
  N   -1.43904305311024     -1.99833182222556      0.00579217059625
  C   -0.16373811111615     -2.32297473300296      0.00493446501975
  C   0.92233090322065     -1.40882917210573      0.00174220962518
  C   2.20117588526028     -1.98575192273621      0.00146270958186
  C   3.46937217514002     -1.46108143036406     -0.00109485669532
  C   3.86269864952644     -0.11504552543637     -0.00430538965776
  N   5.18489839298307      0.16012971125073     -0.00609166114477
  C   2.97852019051354      0.99142657030703     -0.00562063895523
  C   1.61787652247311      1.02492508575367     -0.00414681746695
  C   0.62955064386067      0.00523193338679     -0.00086969321035
  H   -3.59895712306288      2.03706793958872     -0.00002086122873
  H   0.06094056026445     -3.38454266297857      0.00687246482491
  H   2.18180305007647     -3.07021484836551      0.00371569032855
  H   4.27525152897459     -2.18606938582716     -0.00049532407065
  H   5.87119447639889     -0.57084556016464     -0.00646357707064
  H   5.52082410208709      1.10482704511733     -0.00959934008976
  H   3.45929134916839      1.96330425822265     -0.00815824516712
  H   1.21606273519730      2.02755495617732     -0.00580834972516
