30
Coordinates from ORCA-job ./opt_b97-3c_parallel
  N   -5.17905963898961     -0.41014711023347     -0.43683688338988
  C   -4.04229698881263     -0.19643286240180     -0.29689851467525
  C   -2.66981119584758      0.05679790129299     -0.12204279267200
  C   -2.24898478167347      1.40322313353487     -0.33190988304380
  N   -3.13587093420221      2.24051856652168     -0.91380335698118
  C   -1.06829901281320      1.96864448492873      0.15621268651502
  C   0.06138818496380      1.33174624305771      0.63148725067694
  N   0.91796596853886      2.01384845243320      1.40614333914622
  C   0.45396415881447     -0.02925931787414      0.27660153594831
  C   -0.45434590574654     -1.11986342279680      0.24823203441562
  C   0.07367671907866     -2.41957019941673      0.02609529676592
  N   1.34454729040059     -2.71723443067284     -0.14952499662916
  C   2.20272412316308     -1.69812820331028     -0.16374979660870
  N   3.53241727842952     -1.81740679047507     -0.37751602340662
  C   3.99704498633121     -0.56489846441881     -0.40011956484353
  C   3.00700304585051      0.42255915797948     -0.17496316654501
  C   3.20218765512482      1.79965024200854     -0.29494083792917
  N   3.34438348916822      2.95488289992328     -0.37122767804746
  C   1.79512971271784     -0.31200648658638      0.00255414211082
  C   -1.88922399115865     -1.01877844931676      0.35721816077026
  N   -2.54534715940039     -2.09732762474806      0.81807025165619
  H   -2.94281650481890      3.22272047260145     -0.96575853150980
  H   -4.07564958599198      1.94816012661512     -1.11612460891067
  H   -1.07011459246604      3.04952552222601      0.23563161209804
  H   1.82622227047531      1.62659132396045      1.59199438247574
  H   0.86906646005867      3.01718364885938      1.45442597246477
  H   -0.60864486720423     -3.25118156629189     -0.10091579191534
  H   5.03835523326861     -0.35975765874679     -0.60140292495318
  H   -3.54923279701527     -2.14771197583705      0.79982393738201
  H   -2.04800823654339     -2.87396860731606      1.20775662003493
