32
Coordinates from ORCA-job ./opt_b97-3c_parallel
  N   5.13511798446152      2.19327385397227     -0.77048878191786
  C   4.23332019672975      1.50190013601887     -0.52450400665765
  C   3.18744249905367      0.60419586144454     -0.19977436529160
  C   1.91140098007824      1.11862754608287     -0.17388237435268
  C   0.64363980939466      0.56577658076963      0.06459065904503
  C   -0.40702212277290      1.54571394852091      0.19893105857694
  N   -0.07372333097298      2.87245800542822      0.37026670895460
  C   -1.75308589054372      1.17794774417458      0.10065398518600
  C   -2.73680126270182      2.18177866806380      0.24459595104163
  N   -3.46828234661383      3.07364297552193      0.38159611003906
  C   -2.08053661582922     -0.17165649900465     -0.07762804653695
  C   -3.29048824893377     -0.87520940737849     -0.18850247305961
  C   -4.59842333980435     -0.37768489526065     -0.24865837796250
  N   -5.69720800889934     -0.00251717722529     -0.30544790729636
  C   -2.92211030225142     -2.24335846312135     -0.22364348099182
  N   -1.60661280211958     -2.42555053367950     -0.14250362717924
  C   -1.04170025254246     -1.17001525196344     -0.05879583805102
  C   0.31142610892673     -0.83772249403489      0.04059708200538
  C   1.30662814639154     -1.90517248736658      0.14432288120797
  N   0.82928185496199     -3.15244150882495      0.16112940961580
  C   2.69638942539630     -1.78852020659966      0.29474502338869
  C   3.57515804454055     -0.73608395427433      0.12247080394009
  N   4.90063751121524     -0.97710559327555      0.26674463100002
  H   1.87712494671589      2.17185803347704     -0.41620089431397
  H   0.63838059135843      3.07055374878268      1.05193957667158
  H   -0.85743886629721      3.50041390042456      0.45758466248473
  H   -3.60014190749246     -3.07857947128267     -0.30848185404925
  H   -0.19214865578016     -3.29654104795725      0.04899290483893
  H   1.46158951113611     -3.93067676902923      0.21248576337053
  H   3.18281401385299     -2.73586941290305      0.50261899346725
  H   5.23825694996061     -1.91896917100080      0.33005477114173
  H   5.57488367198090     -0.27149485820036      0.02704570918495
