28
Coordinates from ORCA-job ./opt_b97-3c_parallel
  N   2.69121865513639      3.35330921402025      0.11480435517021
  C   2.20199351033193      2.29703679582248      0.10311168474507
  C   1.82019738463349      0.93467328579536      0.06413228693318
  C   2.90907032518671      0.00636920300956     -0.05235740781153
  N   4.15668159461836      0.54060984087964     -0.09482545266807
  C   2.80926858202678     -1.37321632256175     -0.09581319331057
  C   1.65842375843359     -2.16951696749839      0.02146538468708
  N   1.86882890729638     -3.52630937701244      0.04684352470031
  N   0.37609441290817     -1.84967646210945      0.05984649664700
  C   -0.19879827557729     -0.64336707094258      0.02822989244719
  C   0.43288756847316      0.69068026321241      0.09920126373518
  N   -0.29881963232854      1.82859972151463      0.18454932416135
  C   -1.62278030540429      1.79784063888763      0.14657927008645
  C   -2.32722684326872      0.62075277516558      0.01348008141358
  C   -3.69474506836897      0.23724693749580     -0.05099371585685
  N   -4.79106626757611      1.01706492954459     -0.07088430632096
  N   -3.82561659838131     -1.11877728331856     -0.14220088376703
  C   -2.58439537814917     -1.61809466486935     -0.13121110485188
  C   -1.59730052798098     -0.60706804993831     -0.04103298666948
  H   4.93728045432438     -0.04422428840941     -0.32389376713103
  H   4.28058536169593      1.53295851948913     -0.19619750433903
  H   3.74534459392472     -1.91039834148170     -0.19249715759541
  H   1.06171497076620     -4.06833515851201      0.30266284604627
  H   2.75222143752297     -3.87416952215682      0.37322670670507
  H   -2.11279533742004      2.76463721073946      0.22382030221809
  H   -5.68069325400393      0.56164454281007      0.03501879074781
  H   -4.73329592506949      1.98179753436036      0.19650832845569
  H   -2.41578380255032     -2.68189971933620     -0.18707102457770
