29
Coordinates from ORCA-job ./opt_b97-3c_parallel
  N   -5.41995415461728      0.16656103968872     -0.73579599680190
  C   -4.32430622591836     -0.12968204434534     -0.48584918542648
  C   -2.98680374971208     -0.49173782219171     -0.17273706284395
  C   -2.75881262761250     -1.83580962732545      0.13771078888296
  C   -1.54308442224495     -2.43601263704523      0.39568718672652
  C   -0.26701911857512     -1.89014647857607      0.33719342859834
  C   0.19667296021534     -0.59311666300452      0.11602110121407
  C   -0.68931323272997      0.60268900380108      0.07081983872138
  C   -2.05680896247404      0.56123252537634     -0.15023972836534
  C   -0.09369126815941      1.89233125468340      0.17246215495327
  N   -0.90471763634690      3.02795431451483      0.24489216472799
  C   1.28705600310613      2.04982708457894      0.12277903324918
  C   2.13551712982353      0.96662677654370     -0.01538877320965
  C   3.52036391336877      0.87109684903934     -0.09823352531657
  C   3.84618564698575     -0.50485202761445     -0.16631816060856
  N   5.11858054942817     -1.01036075223400     -0.22132029184106
  C   2.66582084479277     -1.27164940738726     -0.10895393793383
  C   1.57919180459167     -0.39053742788420     -0.01601620650417
  H   -3.63328173772144     -2.47290889837676      0.16493549127230
  H   -1.58292300307680     -3.49371821251495      0.62361300837870
  H   0.52309376445087     -2.61331305852552      0.49583165777247
  H   -2.49966781315484      1.52467927426529     -0.36654358175691
  H   -0.38268364015542      3.88150689440817      0.35518602012485
  H   -1.63858686817163      2.97999135029786      0.93371106260010
  H   1.70296919431074      3.04920574303534      0.19446463712532
  H   4.22338643323083      1.68960855341826     -0.10516872042567
  H   5.21202478485811     -1.95579465689106     -0.54996809912191
  H   5.82868459358336     -0.39747223202873     -0.58297230293773
  H   2.63248072572545     -2.34812031500405     -0.17045740535329
