28
Coordinates from ORCA-job ./opt_b97-3c_parallel
  N   4.66296526273036     -1.48688240680323      0.04392911103173
  C   3.69511845509000     -0.83667390308366      0.03080396884309
  C   2.56153838184632     -0.02741795439867      0.00862369214553
  C   2.57047016984852      1.40002215143920     -0.05261827154581
  N   3.69981583903428      2.15529642024805     -0.03682833756257
  C   1.24712005772759      1.86685427855147     -0.07551118070913
  C   0.38452089817411      0.75992661304540     -0.03427950380877
  C   1.21266786737229     -0.43520116528598      0.01490854073277
  C   0.63914889398162     -1.68188975639309      0.10326361241761
  C   -0.74899598891118     -1.84232231486831      0.07863652991572
  N   -1.27131495455890     -3.13144235065535      0.10120738753861
  C   -1.60544093299354     -0.71954271711045     -0.03557372473619
  C   -2.94905615443282     -0.97664728259386     -0.35328264812646
  N   -4.06658968108928     -0.26204360505544     -0.32588570834206
  C   -4.15338383813891      1.02140107623235      0.01427404203576
  C   -3.16104174382619      1.97114099195592      0.19134850979128
  C   -1.78467972622162      1.79327065350104      0.14233761537880
  C   -1.01745629939388      0.63935399785137      0.01804300643440
  H   4.56737020304577      1.69631968597733     -0.25692997704604
  H   3.63646862954791      3.10543476425856     -0.35463051985431
  H   0.97155762399204      2.90766940779431     -0.13541510761057
  H   1.27320919848696     -2.55701467164904      0.18900433684795
  H   -0.58391855967510     -3.84701775757206      0.26759706391832
  H   -2.07817072117158     -3.26581579100553      0.68693237706746
  H   -3.12883884885822     -1.99128147532138     -0.69633022567514
  H   -5.17635896389512      1.37102968575290      0.12523679246170
  H   -3.50688243362595      2.98142007004993      0.37354438358104
  H   -1.21076063168545      2.70492565123788      0.25055555757545
