30
Coordinates from ORCA-job ./opt_b97-3c_parallel
  N   4.13545458403587      2.85634071618258      0.39198425456597
  C   3.21568678119071      2.16186763376762      0.26227538330504
  C   2.05412298179667      1.36675372469767      0.09150224358547
  C   0.81893326410923      1.98787311883610     -0.05410443775256
  C   -0.37549881379147      1.26771686589023     -0.21323327803704
  C   -1.60674220758230      2.04069282052306     -0.33415123593002
  N   -1.47125165343716      3.33013015321857     -0.75258793563685
  C   -2.85264355059423      1.63334875233363      0.08947971853909
  C   -3.22357691266558      0.32987944149421      0.48273187055806
  N   -4.34343107014606      0.18492282229856      1.23340556631337
  N   -2.69339100108093     -0.79866614647814      0.04208664974136
  C   -1.52126788714554     -0.94382554506758     -0.53481155432567
  N   -1.40046259114619     -1.94692695648256     -1.40682558615007
  C   -0.32889243837109     -0.15261924888815     -0.24114592073644
  C   0.90197764352524     -0.79713219958485     -0.04750375236128
  C   1.34175150054411     -2.15061547301833      0.08699496279090
  C   0.59310260717607     -3.32725205470637      0.14807025118839
  N   -0.04213002514923     -4.30446650577411      0.17958000612458
  C   2.73969811733736     -2.06442368272880      0.28640287078159
  N   3.20502138703514     -0.80997786106603      0.28936813444014
  C   2.11729074680036     -0.02950423669624      0.10622689236031
  H   0.78902267003564      3.06169559729701      0.03575543746792
  H   -0.68371439715686      3.56821521777546     -1.32644741677605
  H   -2.30393138402581      3.86077153868346     -0.93314883976574
  H   -3.63561021975239      2.38160935452948      0.12108073522640
  H   -4.65663592976185      0.94164711581803      1.81179209548550
  H   -4.58840240044036     -0.74674505438843      1.51943359457685
  H   -2.11188407373910     -2.65900389111691     -1.41652072745580
  H   -0.48967822743378     -2.22078530185968     -1.72990042298623
  H   3.39822704683364     -2.90563983118953      0.44475902486282
