33
Coordinates from ORCA-job ./opt_b97-3c_parallel
  N   4.82431353387748      0.80171179163149     -0.12763172170011
  C   3.72537750028620      0.41287886160690     -0.09075453919372
  C   2.40709487163638     -0.07631726536883     -0.06043881619709
  C   2.24609176105170     -1.44629502044024     -0.38365121247477
  N   3.30180419031420     -2.09424751412542     -0.96046925270168
  C   1.12615182809916     -2.19519886788388     -0.05861400966083
  C   -0.13302202854218     -1.78065210333281      0.36082375161636
  N   -0.91071962093078     -2.74513162384777      0.90836449962042
  C   -0.75961277574799     -0.49113617725280      0.12775985419787
  C   -0.01310870598970      0.74108151714446      0.11416799899238
  C   -0.72459319662257      1.96543497822890     -0.07323288147775
  N   -0.02938003307386      3.21437939110895     -0.16430207726696
  C   -2.09984065687628      1.99092251549104     -0.17397250956974
  C   -2.84880770500307      0.83129745460910     -0.13006260625953
  C   -4.21983202320208      0.60149969840300     -0.28295458089961
  C   -4.40769938395674     -0.78478926203052     -0.29707065765149
  C   -3.18374262647770     -1.44103653952999     -0.12485455840349
  C   -2.16543171094139     -0.45563228775223     -0.01091534975603
  C   1.40821186424629      0.81802758274640      0.40119509784957
  N   1.84369304874674      1.88844420986826      1.09915339035468
  H   3.30498644152451     -3.09767061365253     -0.94048507543609
  H   4.21177860921839     -1.66676316986260     -0.92373778031751
  H   1.26081574720929     -3.27054689873257     -0.10428465168743
  H   -0.47867397728425     -3.58418435658027      1.24708629079002
  H   -1.79258794660392     -2.48336045092651      1.31606614258141
  H   0.59402352091978      3.23874284394739     -0.96252611843396
  H   -0.68993685688355      3.96974945709020     -0.27020901437853
  H   -2.59586135132871      2.94215310498810     -0.33906523985564
  H   -4.97881909891737      1.35764596035241     -0.40974966438911
  H   -5.35547186064848     -1.28632237412092     -0.43088757093276
  H   -3.06413295687235     -2.50797150967430     -0.19799909107378
  H   2.83569707998058      2.05431969728346      1.15415953746930
  H   1.24651873619214      2.71414830351415      1.08933263824555
