30
Coordinates from ORCA-job ./opt_b97-3c_parallel
  N   -2.76769595958093      3.59640896304787     -0.42543741617938
  C   -2.44603710330333      2.48579533255254     -0.30989419988932
  C   -2.14456152088041      1.10499188273505     -0.18246993685216
  C   -3.25019122486847      0.25588439875565     -0.35792771070843
  N   -3.43579871529765     -1.03175450399293     -0.20058433297878
  C   -2.47177813313077     -1.90285674722428      0.16936934013757
  N   -2.98675980232728     -3.14087486138054      0.45092577901761
  C   -1.09194177299140     -1.74742163332351      0.21953692424031
  C   -0.28371009773320     -0.60795985369795      0.04327632085193
  C   -0.77445146824186      0.77458173831998      0.04341259958005
  N   0.03558840859915      1.81777307805542      0.21507859326679
  C   1.36751792002950      1.67269177276235      0.27957915782845
  N   2.08236094988058      2.81652531880209      0.52470808464525
  C   1.95564757105836      0.43978917815833      0.05454240012480
  C   3.27352040151303     -0.04166934322841     -0.11486536315623
  N   4.42729790881384      0.68241208882341     -0.09527985460283
  N   3.29793555495560     -1.37906524680789     -0.30678542341986
  C   2.01471152270534     -1.79199912827327     -0.27417876478612
  N   1.71886070136596     -3.10472198578847     -0.46024229677718
  C   1.10514513177799     -0.71024672683018     -0.05081100824148
  H   -4.15541931316054      0.78096107725105     -0.64986674793013
  H   -2.45585918627796     -3.77141261978712      1.02379138716516
  H   -3.98460714172556     -3.16542237317730      0.57014258779480
  H   -0.55398682135892     -2.64705368767175      0.49031112770260
  H   1.50061856254078      3.59566441467967      0.79159887886005
  H   2.91168188200996      2.71444257805684      1.08617769580104
  H   4.36250343518075      1.62865145967649     -0.43403126340238
  H   5.23098806520017      0.18335206677487     -0.44194394010089
  H   0.81767414003887     -3.31398497517176     -0.85718885904976
  H   2.47747219950865     -3.64816629049677     -0.84052491824158
