26
Coordinates from ORCA-job ./opt_b97-3c_parallel
  N   -5.15974512666090      1.23780964259768      0.29959743920857
  C   -4.16148571496581      0.64436847014946      0.22156476859412
  C   -2.91843160283670      0.00839711981441      0.13135667431714
  C   -2.64673207570479     -1.35736524468660     -0.04493527131239
  C   -1.25368631122412     -1.53373057578402     -0.08974797532757
  C   -0.43410546993477     -2.61338729999071     -0.37095579012987
  N   0.89060770503489     -2.53492779807344     -0.33723495983006
  C   1.51147507689330     -1.37056109887081     -0.06553496630478
  N   2.80019586068458     -1.50102194382566      0.24991572772357
  C   3.68020074399500     -0.53011464189538      0.45631821666720
  C   3.63255557812967      0.82645053931045      0.23679812294457
  C   2.48619792500541      1.56483154768041     -0.13253088267982
  N   2.66442166935255      2.88712879462393     -0.41263484300371
  N   1.22158198776491      1.16815355623577     -0.15007164926717
  C   0.74544778447840     -0.08792193064060     -0.03421388229240
  C   -0.62937964620775     -0.25064665798888      0.06532583036975
  C   -1.67263005148007      0.71328906635420      0.17396113401023
  N   -1.49778160401484      2.02845686252783      0.29206008279613
  H   -3.39441974396243     -2.12739453946076     -0.14327292584741
  H   -0.84931181564901     -3.58355278826346     -0.62434287067750
  H   4.63371693321443     -0.90057525733540      0.82620718908386
  H   4.55070205651754      1.37959414750851      0.39186826494455
  H   3.57994013006649      3.21147929079344     -0.66475958512142
  H   1.89113793728035      3.36396163625188     -0.84166503830876
  H   -0.55233315671878      2.37147863262143      0.20465703094713
  H   -2.27957452515756      2.65957116094629      0.31598369129604
