25
Coordinates from ORCA-job ./opt_b97-3c_parallel
  N   5.09611756233337      1.40434790070835     -0.15235566209780
  C   3.95767137819864      1.16587903649257     -0.13136219470237
  C   2.59546656387831      0.80294143055047     -0.08629952678203
  C   1.64783377928305      1.82312213890014     -0.21654268289433
  N   0.33739347061847      1.83066494815655     -0.15161969908157
  C   -0.49757345033894      0.78731812367968     -0.03376956265248
  C   -0.11767403919055     -0.65704120568811     -0.05616049257020
  N   1.09608240592827     -1.16285757742915      0.03885293368127
  C   2.28940719101711     -0.57985948510965      0.10449386318736
  N   3.29300849064084     -1.43702987224814      0.34166650582289
  C   -1.16216187276360     -1.63308919433027     -0.14578090599695
  C   -0.79665873254106     -2.99857431435951     -0.23411229305363
  N   -0.53944195568444     -4.12767081881491     -0.31094618644973
  C   -2.50893976824702     -1.28832126135057     -0.08789755052900
  C   -2.86408244293185      0.04162155331524      0.04097320282593
  C   -4.08888246171129      0.72472695319849      0.11062979135562
  N   -3.90877809607790      2.07087520327704      0.18379866939866
  C   -2.58644124115669      2.28259045196229      0.15393469721239
  C   -1.85858034777591      1.06227792474358      0.07517763642793
  H   2.07663774274580      2.80746106813727     -0.38255040048875
  H   3.07026789714978     -2.41546704496249      0.39943003851760
  H   4.25226496087297     -1.14220469778829      0.39075232622832
  H   -3.25529649277390     -2.06963662913414     -0.13590399388074
  H   -5.08197507588831      0.30089217251970      0.10475651917938
  H   -2.17502760768515      3.27865419157396      0.19281456144224
