30
Coordinates from ORCA-job ./opt_b97-3c_parallel
  N   5.66524393263565     -0.88695616643340     -0.52073891791237
  C   4.57495984430904     -0.49551351406169     -0.41974269394589
  C   3.23548989075071     -0.08139876134817     -0.25051569063439
  C   2.91361272650533      1.21935606395522     -0.65867683017076
  N   1.90942193609142      1.95545298336861     -0.27024894987901
  C   0.83992451651665      1.55971144979294      0.40397992956268
  N   0.33255029911977      2.42549054673091      1.27515167602900
  C   0.15868081989577      0.29192540386948      0.18843724766316
  C   0.89293427259629     -0.93115869807573      0.22965076252263
  C   0.17765127146101     -2.14988526793045      0.18773849673724
  C   -1.19286166607487     -2.19484497676589      0.08171243670409
  C   -1.91740745067188     -1.01474704826232      0.01193854907314
  C   -3.30494681296390     -0.77313849455727     -0.14303578145256
  C   -4.29368633799569     -1.76328449502910     -0.21769779080952
  N   -5.08923773182137     -2.60988226478315     -0.27296078167423
  C   -3.48793670574771      0.61301899159578     -0.23006417983732
  C   -2.24757050822242      1.26319006038594     -0.11792032872583
  C   -2.07759949383142      2.64396423998203     -0.25785682117088
  N   -1.91572283850103      3.79399953168415     -0.35031406791875
  C   -1.23624833703332      0.25563148044116      0.04834315727015
  C   2.33415561625384     -1.01487493074883      0.32792854338080
  N   2.86124693638372     -2.13121370046862      0.85018259678132
  H   3.63543683068032      1.72337643065793     -1.29174948925194
  H   0.63685782524930      3.38483205993380      1.23476869640810
  H   -0.55773368223835      2.24876528169989      1.70529512498525
  H   0.71800369250843     -3.08290532548177      0.13625713172402
  H   -1.70168832429850     -3.14745067174402      0.01788941745976
  H   -4.43072820434800      1.11198382241943     -0.38063159822977
  H   2.28737303847771     -2.80234002810482      1.32329000904641
  H   3.85525130271348     -2.28658275102197      0.84348217576540
