32
Coordinates from ORCA-job ./opt_b97-3c_parallel
  N   5.32102339680692      2.67573946644175     -0.51792214981473
  C   4.35986827250778      2.03680267996015     -0.36731747440469
  C   3.25674934466675      1.19121374859693     -0.19644434602808
  C   1.91290978701273      1.53983125971981     -0.07108739460200
  C   1.15980069589206      0.34963368184322      0.02315835229712
  C   2.07524224963790     -0.75657071925687     -0.01689268361850
  C   1.56656572004078     -2.04346215063925      0.21636849423881
  N   2.39690129538113     -3.12335166687346      0.36584191997410
  N   0.26399266854584     -2.28465988507507      0.27059233102346
  C   -0.63436525006740     -1.27594650187917      0.15736609070739
  C   -1.94701097531901     -1.69412098876465      0.02067912815843
  C   -3.14572440706388     -0.98384554368037     -0.15013894443510
  N   -4.24981401102473     -1.74280160278983     -0.37121457660634
  C   -3.32055464995630      0.41394747762939     -0.06917777780904
  C   -4.61865577747272      0.90842608219955     -0.26618878544185
  N   -5.70131451485317      1.30959615502912     -0.43236136435488
  C   -2.30296291341959      1.35814491642635      0.28663367169118
  N   -2.72077077911048      2.60421214841739      0.62494770165135
  N   -0.99376418498324      1.21923457649984      0.30571490178646
  C   -0.21640884292235      0.14637662891027      0.15672761251980
  C   3.36687351896118     -0.24633769617679     -0.17210054719130
  N   4.54375896090283     -0.94291842120239     -0.25028251002159
  H   1.51759868176232      2.54032846324884     -0.07194433397920
  H   3.28336225531937     -2.94494887689102      0.81000291321331
  H   1.92467729170289     -3.94606782225377      0.70638465197627
  H   -2.04253932204044     -2.77253804845403      0.00247921548432
  H   -4.14348921070990     -2.71105173413772     -0.60655772689139
  H   -5.12818501087114     -1.31343042760390     -0.60238759659840
  H   -3.67895834994094      2.88509786948592      0.52201115334380
  H   -2.01583050953529      3.31621345644097      0.68079359709478
  H   4.50108082739659     -1.81689351854019     -0.75013801812854
  H   5.34900413885336     -0.39383362103162     -0.50931067353494
