32
Coordinates from ORCA-job ./opt_b97-3c_parallel
  N   -3.74379045106434      3.65860900091441      0.48952022304965
  C   -3.12821396854006      2.68532090377459      0.33720524283479
  C   -2.43645558093310      1.45931613744785      0.15876983123278
  C   -1.08029082233351      1.55637577730377     -0.05438520742873
  C   -0.04784679650613      0.60910049820407     -0.13137895935325
  C   -0.21225925864262     -0.81994064179168     -0.04489543091680
  C   0.92296936072036     -1.61182929525709      0.15709895191417
  C   2.22367098747752     -1.09855321947319      0.18710140603984
  C   3.28094882289386     -2.00884208041383      0.44775255510726
  N   4.09618727416608     -2.80492689728175      0.66368424951653
  C   2.43583480711234      0.25468364141800     -0.04446505573209
  C   3.58926568104945      1.05863323835266     -0.12263848039471
  C   4.92822081190916      0.65594939726078     -0.02932336323999
  N   6.04978892626317      0.35714514662821      0.03878203048170
  C   3.14925794023911      2.38769495000747     -0.32773915295949
  C   1.75776026002296      2.43199628129062     -0.36600326100071
  C   1.26991244892889      1.12656631172407     -0.20075804866299
  C   -1.45892050563196     -1.50788914029133     -0.26870048106926
  N   -1.35959148518361     -2.80271152961795     -0.63403368751717
  C   -2.78293769790276     -1.01984920884553     -0.09432782017223
  C   -3.80769159030863     -1.98038500760870     -0.24471782658144
  N   -4.65698187165905     -2.76631179818490     -0.36573887594353
  C   -3.24551634788967      0.28073773645121      0.20580344611055
  N   -4.54956993777357      0.44729259021398      0.48224118252175
  H   -0.73276801606034      2.57824939435307     -0.08316490172039
  H   0.81554509758377     -2.66279141440629      0.37170771644674
  H   3.80944001089405      3.23257923106999     -0.44212643376383
  H   1.18283680816389      3.32866255789388     -0.52920102699087
  H   -0.49547313903804     -3.15310854019758     -1.00110801137611
  H   -2.17950863036519     -3.35860124040522     -0.80542998338414
  H   -5.18942754238414     -0.32763927228797      0.47610004077257
  H   -4.93726517990625      1.36830405855290      0.59385547447883
