25
Coordinates from ORCA-job ./opt_b97-3c_parallel
  N   -2.67081165621938     -2.05642643782499      0.69159042680653
  C   -2.13327300009438     -0.96628318249474      0.11342258071719
  N   -3.02832350805600     -0.12685079155062     -0.40175837568696
  C   -2.79543499618611      1.12868392888981     -0.71771477077461
  N   -1.86214026637478      1.95918176686336     -0.30319278616077
  C   -0.69189469142162      1.60302199394544      0.22141643326938
  N   -0.07013372218685      2.56177808983212      0.91530081938934
  C   0.00900158621879      0.35085536923098      0.01644437748595
  C   -0.69887129051655     -0.89530179155434     -0.01299028203234
  C   0.01888330444858     -2.10510718127549     -0.07932851230914
  C   1.39742866750106     -2.14207000848365     -0.13935632631252
  C   2.11495758455734     -0.95618274815268     -0.10874764974306
  N   3.45145566027212     -0.79279436495638     -0.17047368341928
  C   3.63429388300666      0.54874651828432     -0.14629937144045
  C   2.44999522062734      1.28241319542209     -0.04962651673677
  C   1.41323124774291      0.32262250453638     -0.02654665800385
  H   -3.67202319419029     -2.13111655844271      0.72147748389351
  H   -2.11539740993778     -2.68133735277053      1.24347639149436
  H   -3.56300007154797      1.58715361860789     -1.33391683767833
  H   0.82665348374551      2.39441593354978      1.33566452291506
  H   -0.50240466266085      3.46519548604914      0.98970631808560
  H   -0.52995222394202     -3.03221674675412     -0.16353883889098
  H   1.92326056656136     -3.08354681873413     -0.22719323093536
  H   4.63313283189861      0.95946368128804     -0.20442438504655
  H   2.37766899595422      2.35691712769518     -0.09087296818599
