29
Coordinates from ORCA-job ./opt_b97-3c_parallel
  N   -4.10635413849277      1.89876250933184     -0.18146542400216
  C   -3.10022313224523      1.32015947063355     -0.11997086542503
  C   -1.85674566417255      0.65044815582245     -0.04627518850513
  C   -0.68414256732180      1.40895515719719      0.00523010713433
  N   -0.76925758727348      2.82229925445972      0.04799689547941
  C   0.58167134177193      0.76669264440704      0.04291265257641
  C   1.78765313220315      1.55185351948696      0.20883881883580
  N   1.76307860024027      2.65069318319118      0.97877337874197
  N   2.94652439401350      1.33623898471488     -0.42205595653518
  C   3.39543200777611      0.16777582754494     -0.80951255081809
  N   3.07704567219614     -1.03969695899269     -0.38250712891698
  C   1.93022010538981     -1.34820061715681      0.20495428069057
  N   1.94383697495615     -2.45628957721402      0.95101756833389
  C   0.64869895195044     -0.66953657141088      0.02530410431661
  C   -0.52157255073813     -1.42799694552560     -0.02468822597795
  C   -0.79844137952448     -2.81991407243809     -0.09006772310065
  C   -2.18082209690627     -2.97229100069623     -0.16403658080263
  C   -2.81722195879585     -1.71454638132536     -0.12799747261696
  C   -1.82027220667327     -0.75211860573266     -0.05680886151347
  H   -0.29252044521630      3.25792992552648     -0.73087161326276
  H   -1.73038620188200      3.13440440731495      0.04048511336060
  H   2.54974694380763      3.27348998804820      0.90238043606083
  H   0.86192340219610      3.03657778343403      1.23385226458438
  H   4.23339729922650      0.20230162035082     -1.49860611037321
  H   1.10330400158041     -2.79506553749750      1.38476906075117
  H   2.79401551542988     -2.98762536593497      1.01484811103804
  H   -0.08609374893008     -3.62314758182099     -0.17877303340448
  H   -2.69073948790374     -3.92107551282041     -0.24524291251080
  H   -3.87842988766212     -1.52919067799794     -0.16506185573839
