31
Coordinates from ORCA-job ./opt_b97-3c_parallel
  N   4.92481777672765     -1.33183015674886     -0.46018665650658
  C   3.80946283489533     -1.03497222235251     -0.30829310774087
  C   2.45746246666990     -0.68809077465643     -0.11730980326506
  C   2.22293601352628      0.62240396104845      0.36960872967239
  N   3.28618342613341      1.30437227652140      0.82840016061511
  C   0.97507895841361      1.30388845204331      0.32359385850967
  C   1.03680871209300      2.62942340622017      0.81319643608924
  N   1.19193033960928      3.66638768620275      1.31679326977717
  C   -0.29069938987703      0.83923699062385     -0.10783711334497
  C   -1.23791160509241      1.79808338832442     -0.55923371428237
  C   -0.81233391171584      3.03039875002121     -1.10846535136494
  N   -0.51514023714409      4.02186634626987     -1.63522083291074
  C   -2.61383389035404      1.54387924950363     -0.52825249870799
  C   -3.05383547358136      0.34419134849685     -0.03181940764872
  C   -4.34208496137141     -0.17500938849808      0.24068616856260
  N   -4.27299723388662     -1.41764032268704      0.73551401617220
  C   -2.96064493827508     -1.75679156929845      0.75783472427146
  C   -2.13010133048885     -0.70423853119361      0.30146304305533
  C   -0.73927381297350     -0.54874011767188      0.07418315549415
  C   0.11065343959014     -1.66343560402164     -0.06025394349022
  C   -0.48955362522336     -2.94233996869591     -0.08334877129532
  N   -0.86701644468573     -4.04081098030940     -0.14068958242182
  C   1.51921487399259     -1.72126748110183     -0.33487643449150
  N   2.00342973700500     -2.89308891464299     -0.78546562917835
  H   3.21196579604263      2.28061483538266      1.05864488652524
  H   4.20375352471712      0.89552116977003      0.82566853867112
  H   -3.29918554509094      2.30687644760055     -0.87042881399461
  H   -5.28980250280297      0.32561489734634      0.10787197563858
  H   -2.67364454834485     -2.72333937039040      1.13173697025150
  H   1.40654756125436     -3.69530019931788     -0.88608142636758
  H   2.99204716753766     -3.03593362488960     -0.89390122719499
