31
Coordinates from ORCA-job ./opt_b97-3c_parallel
  N   -4.42611277755947     -2.64227903537873     -0.84145296452794
  C   -3.72750944436803     -1.75403094362695     -0.57911151720133
  C   -2.90526874042082     -0.63372971872165     -0.27023959752887
  C   -3.57770985500681      0.58385568302960     -0.06761059739663
  C   -3.03951682891916      1.78790446527919      0.26916703911335
  C   -1.69263086158093      2.20091141432701      0.39079918061958
  N   -1.53370001201908      3.41211839348060      0.95877852843083
  C   -0.50698970104103      1.47713602946156     -0.01024392873120
  C   0.69399615104826      2.19162849063873     -0.25707196940969
  N   0.68275177908972      3.59544956797144     -0.45842396129236
  C   1.92495336591988      1.54967493178724     -0.27234891918653
  C   2.01580393576825      0.19642608505404     -0.04723227400629
  C   3.14420655902092     -0.66339181895653      0.01335366683710
  C   4.47647926374277     -0.24425706069464     -0.08890048371021
  N   5.56692999067799      0.15022938987573     -0.18145242968713
  C   2.66528501677769     -1.96445446671981      0.19126390095747
  C   1.25645843679557     -1.94698235501384      0.22939298125708
  C   0.48479187946601     -3.09612942432166      0.44318337790414
  N   -0.14961121263254     -4.05574850174836      0.62152350525125
  C   0.82223674024728     -0.59531253258965      0.08402130754738
  C   -0.45454417751177      0.01766776630627      0.00809591406902
  C   -1.54767426491757     -0.85681037137284     -0.15100937283385
  H   -4.65619475422062      0.54692870142727     -0.14275679412091
  H   -3.76218537823170      2.56674287334573      0.48409790750918
  H   -0.63689748248414      3.88135083707822      0.87638892449212
  H   -2.34221828363140      3.96972039190530      1.16703911433279
  H   0.08350754595306      3.87395712993765     -1.22363929994089
  H   1.61082298356776      3.94907073017453     -0.63407142084793
  H   2.82527350307744      2.12333252598629     -0.46028188835854
  H   3.27055821427333     -2.84892624401185      0.29846232844141
  H   -1.27302373578049     -1.89495346710959     -0.24802924008220
