28
Coordinates from ORCA-job ./opt_b97-3c_parallel
  N   -2.32673587496091     -3.55431004935676     -0.57022302323576
  C   -1.78222436902044     -2.54120695324064     -0.40306183028740
  C   -1.02253993766067     -1.36779706370470     -0.20752724709697
  C   0.40231410806131     -1.46446328632498     -0.16838869275179
  N   0.97054107506075     -2.74769622151618     -0.18498916700981
  C   1.19336312074244     -0.32720571977526     -0.04049847014046
  C   2.59438425734250     -0.43301816784028      0.35170479540655
  N   2.94995156494227     -1.42656413056386      1.17786758433581
  N   3.59412164290821      0.34327805057824     -0.04532467987194
  C   3.49152947282549      1.56085322928819     -0.54848416896633
  N   2.54069040677438      2.46917125662727     -0.43586924678925
  C   1.29126225101738      2.19802701327942     -0.06633032844505
  C   0.58496829198877      0.99642879821598     -0.00187455364751
  C   -0.83293193236949      1.07319612737298      0.08666216377741
  C   -1.75725417090154      2.09958848672630      0.16685388522656
  C   -3.03232886925394      1.46257827071701      0.12108729084418
  N   -4.23349983819557      2.06866941386090      0.23586322712891
  N   -2.96030860215800      0.11949370921542     -0.00442966030489
  C   -1.64344774041065     -0.14288949815239     -0.02917022302547
  H   1.73879872159647     -2.84098081632825     -0.83181084544934
  H   0.29266200917009     -3.47643109289485     -0.35418449024304
  H   3.93277384734619     -1.56257755125129      1.34076255578717
  H   2.31272873285264     -2.19300441768120      1.33951627996620
  H   4.38855784905549      1.90669672206728     -1.05405766764502
  H   0.70219834107259      3.08964650726615      0.11836417602297
  H   -1.58417952143216      3.15965026305042      0.25263014463185
  H   -5.04197851736089      1.51232178465000      0.01837468056996
  H   -4.30738250694021      3.05539274190524      0.07218135801772
