30
Coordinates from ORCA-job ./opt_b97-3c_parallel
  N   -5.52522443645310      1.68034912102332      0.24429991105863
  C   -4.42909306900972      1.29683372409686      0.16713445987816
  C   -3.13959827909960      0.75793171856719      0.08142911810647
  C   -1.91979220202172      1.44998153693783      0.03702261441681
  C   -0.87597108162728      0.50998763462468      0.00962277967036
  C   -1.47953989153590     -0.79848155997465      0.01648193771341
  C   -0.65032650873925     -1.90778069465466     -0.13926896359157
  N   -1.12575703855761     -3.16718837904545     -0.30863666246660
  N   0.68569015719828     -1.79596625009440     -0.10324748992018
  C   1.27971430794291     -0.61019910263058     -0.01099200832129
  C   2.69412400696558     -0.67046958664066      0.11847265791701
  C   3.25961267726099     -1.97124602853412      0.21023150036158
  N   3.80138024002348     -2.99495185148295      0.29317832935804
  C   3.64279520664586      0.36555235776228      0.17312752458179
  N   3.56429252553378      1.66813547896550      0.06876847288670
  C   2.42128869834931      2.36122005890699     -0.10014640326813
  N   2.64864393638102      3.68986149607033     -0.28301732368568
  C   1.09328471967955      1.92518722463885     -0.10943067622499
  C   0.52672119879969      0.65668703605103     -0.02913860273141
  C   -2.87280351063292     -0.64581637384251      0.08140717541376
  N   -3.81950374363578     -1.64091494727766      0.10788375561732
  H   -1.83810668503681      2.52377639550324      0.05401220328478
  H   -0.43081762922972     -3.85247678550974     -0.55829371890786
  H   -2.03121841967059     -3.27915390518463     -0.73314867452654
  H   4.65956999587069      0.01275791500420      0.31766724436959
  H   1.90161881959045      4.35641211941936     -0.23113121494687
  H   3.58185894150916      4.01573758348976     -0.10589572156812
  H   0.37069014144120      2.72769416731865     -0.19372623063549
  H   -4.76104219890642     -1.31788203494340      0.27258973542826
  H   -3.59487646753576     -2.43275301616470      0.69044886223230
