28
Coordinates from ORCA-job ./opt_b97-3c_parallel
  N   -4.85765128056460      1.39323426473772      0.29337633196906
  C   -3.80367939846290      0.90377977290503      0.20008819025874
  C   -2.54166509897218      0.32281424354488      0.08906429012383
  C   -2.27458108542812     -1.06861401939523     -0.04658397983504
  N   -3.22616882734038     -2.03331294547459     -0.06267963865356
  C   -0.87469048393209     -1.24034800854584     -0.06932570445753
  C   -0.07724240105567     -2.36418555293524     -0.13660431704777
  C   1.29781546665256     -2.23292893594871     -0.05821145483145
  C   1.94495727857271     -0.99003457836685      0.06194598480194
  N   3.26209394588185     -1.06889466026435      0.34936445028338
  C   4.18120402828710     -0.12452400248344      0.37366595466498
  C   4.14753336091745      1.20724708838540     -0.01967268753093
  C   3.00607530873050      1.91193091425201     -0.39220016167850
  C   1.69519677426499      1.49863906269661     -0.38391514680297
  C   1.13420628113827      0.22999119353011     -0.06308705919632
  C   -0.25138397985235      0.06769516331480      0.00906433821609
  C   -1.30996628794025      1.02000533256886      0.13034764751868
  N   -1.20888912853902      2.36639972804943      0.25967784896388
  H   -2.97933624557130     -2.94030455501488     -0.41483321666303
  H   -4.17464764959256     -1.75423794186095     -0.24624956000486
  H   -0.50869000037695     -3.35619033438635     -0.20410924490233
  H   1.93202537976094     -3.10606482380645     -0.02749711686573
  H   5.14317593517633     -0.48139533636011      0.73728893495432
  H   5.08960147496173      1.74011810687459     -0.00978832258212
  H   3.16452686161037      2.93525402148534     -0.71521135159923
  H   0.99117685513488      2.22232081082586     -0.77005202771542
  H   -0.34599145911651      2.72863911554353      0.63103785383603
  H   -2.03225358734479      2.84874117242889      0.58386084137582
