33
Coordinates from ORCA-job ./opt_b97-3c_parallel
  N   -4.60623914737383      1.60391428330525      0.67614511528699
  C   -3.75278673523081      0.84695587112138      0.44342798334970
  C   -2.73669249089244     -0.08739758118963      0.15615606385610
  C   -3.18575986787151     -1.31501484256765     -0.39842487718599
  N   -4.46636797705865     -1.38066076478699     -0.82734031816876
  C   -2.43699562656839     -2.50077302364820     -0.45213126610823
  C   -1.11824767494312     -2.69377590393320     -0.14782221122806
  C   -0.06294962078086     -1.79638123225655      0.09371253697861
  C   1.21314925745836     -2.38956336948949      0.16352139496586
  C   2.37897829324923     -1.64896205585965      0.18041458369530
  C   3.63883398007852     -2.29087903155859      0.25085213098888
  N   4.68239505477797     -2.79654783540751      0.30710220126072
  C   2.30825208775947     -0.24811347981687      0.05615659709760
  C   3.30501029898070      0.70739651173836     -0.06335162339151
  C   2.68098063179539      1.95836610402924     -0.22165072881690
  N   3.30030975295823      3.15070137000737     -0.38563659754070
  C   1.26418118384640      1.79392818227040     -0.15851179213875
  C   0.39464849171789      2.83234616237401     -0.47915262617491
  N   -0.28870746875142      3.74319969673050     -0.73683035727062
  C   0.99911287265290      0.39824996039731      0.02441410342722
  C   -0.17264489171571     -0.35661509035682      0.15086337159722
  C   -1.42050009307609      0.29851941226158      0.51053180969115
  N   -1.30012869692365      1.40151896783849      1.25663128408628
  H   -4.87088421643928     -2.26901738063857     -1.05595231897173
  H   -5.10180016552960     -0.61445834564736     -0.68821416576243
  H   -2.98785036052972     -3.38367338285172     -0.75233707492406
  H   -0.80494929510887     -3.73000206997480     -0.18951411468925
  H   1.28068981014699     -3.46738850300437      0.16454649527705
  H   4.36683679775300      0.52254386606562     -0.05586826235441
  H   4.25495357866219      3.15268261602752     -0.69607023572070
  H   2.74736003733245      3.93244315390054     -0.69470564133667
  H   -2.07265256640856      2.03068321383727      1.39784949642664
  H   -0.38515225616728      1.75504781818302      1.47271157089832
