31
Coordinates from ORCA-job ./opt_b97-3c_parallel
  N   -3.56779632740434     -2.95778821573706     -0.57233308903987
  C   -2.88623599652740     -2.03367611966351     -0.39525753974499
  C   -2.15090448060906     -0.84017374489116     -0.17781216710890
  C   -0.78553485947833     -0.95446722537545     -0.09238359407093
  C   0.26221134906918     -0.01080807341355     -0.00461923349535
  C   0.11992937161640      1.43055631584766     -0.01475707785952
  C   -1.11137159154708      2.08948631216812      0.36172277084533
  N   -1.01540985421888      3.33628136465577      0.87824568021880
  C   -2.42076628465771      1.59753706026547      0.28670923072041
  C   -2.93520400753051      0.35069708012311     -0.01592968016571
  N   -4.27868705209477      0.22338802685490     -0.13662275861993
  C   1.29728804831487      2.19250466810581     -0.24856888053390
  N   1.24441086890587      3.58980893829460     -0.47611382281831
  N   2.53009050637265      1.70107558437071     -0.26123948336627
  C   2.69840325952637      0.39830001877933     -0.07884000261850
  C   3.89899690559933     -0.32952089894595     -0.02554998352358
  C   3.55954464905438     -1.66672789918808      0.08366863214987
  C   2.14150456997627     -1.82193893546399      0.09663205165791
  C   1.49478201750065     -3.05316351248825      0.22550729060312
  N   0.95118193919781     -4.07930368883023      0.33074555396542
  C   1.57251181790921     -0.53016000790163      0.01061741242832
  H   -0.44452922641983     -1.97613748036685     -0.16051719035505
  H   -1.85088664014409      3.86465471837633      1.04938107830889
  H   -0.14339538165972      3.84493742340448      0.76436590088636
  H   -3.17785427791911      2.34014091459187      0.51651048674639
  H   -4.88124916627189      0.98999770465422      0.09570232738078
  H   -4.70172667407990     -0.68668600333877     -0.19421985606890
  H   2.18843206684222      3.91043780755382     -0.64320325450393
  H   0.66546210177945      3.83206391734098     -1.26960839988684
  H   4.88981273264400      0.08930843606646     -0.07467151703354
  H   4.24684484545411     -2.49507740464905      0.15467150090281
