26
Coordinates from ORCA-job ./opt_b97-3c_parallel
  N   -5.52132154087298     -0.86726368578556      0.20321813478098
  C   -4.41677178832153     -0.51292515246234      0.14484682993362
  C   -3.07107144329468     -0.07036349267823      0.07084051063656
  C   -2.85325553739904      1.30705307904227      0.25660760307754
  N   -1.77766349420570      2.02602922518739      0.08155489043842
  C   -0.53010756494026      1.61854587771771     -0.20207841085423
  N   0.24652373048425      2.61949811553084     -0.63948326844708
  C   0.07674478880520      0.32692700794617     -0.03507019114602
  C   -0.69487214916204     -0.90111716188356     -0.13078706709174
  C   0.01178416662531     -2.13379183402858     -0.21904173068522
  N   1.31641653444448     -2.29084946901488     -0.17530361617322
  C   2.04319713905315     -1.17771065925331     -0.02655828058844
  N   3.36990171243466     -1.15683316637802      0.04691095045982
  C   3.69144534638299      0.16019201446137      0.20940002998456
  N   4.99307247072469      0.50122469152372      0.32229312364806
  C   2.57758831716783      1.02338405555726      0.19819689199062
  C   1.46353567659490      0.18408530857426      0.05726271477923
  C   -2.07635410072094     -1.02979027968992     -0.12414424553149
  H   -3.72412511474667      1.88339924468250      0.55499103117104
  H   -0.18665281751417      3.51399755016504     -0.78861318477296
  H   1.15157477393837      2.43018637664148     -1.03566423824830
  H   -0.57646822185472     -3.04158403576811     -0.30273586339287
  H   5.63776509886871     -0.24885672969581      0.50162836163003
  H   5.23867672257252      1.40298014253643      0.68687621731190
  H   2.61228209004791      2.08293864798678      0.39064905438568
  H   -2.43893877871216     -2.04480013041471     -0.23154040189646
