28
Coordinates from ORCA-job ./opt_b97-3c_parallel
  N   5.89324446923300      0.31614028045221      0.31247840796682
  C   4.74420248955685      0.48198353080361      0.24640640832577
  C   3.35026129729322      0.59216469701782      0.16100143325112
  C   2.57726715618568      1.74665129780369      0.10159811269856
  C   1.21485411202761      1.36835340618590      0.01959849412777
  C   0.07050291828853      2.08988502031449     -0.16799501432482
  C   -1.16749311514654      1.41482111885384     -0.24308970598658
  C   -2.28165777986581      2.22471870980184     -0.57553010552249
  N   -3.11293756730886      2.94852446999807     -0.94052919642330
  C   -1.28708741769286      0.01440353196493     -0.08262871109718
  C   -2.57308035569305     -0.56448966391832      0.19110671793890
  C   -3.58202626675643      0.25714839725789      0.75759883715020
  N   -4.42816148687230      0.83130041688345      1.30966537352622
  C   -2.97078682005567     -1.89169317738226      0.03996349056890
  C   -2.21512527843002     -3.00057605451118     -0.28386205881523
  C   -0.82969527278914     -3.05180167931830     -0.38369213511266
  N   0.09349014629323     -2.12696517973471     -0.22370173657840
  C   -0.05428405340006     -0.78042280709013     -0.08335840839471
  C   1.13853407721305     -0.06946822802822      0.03945481283985
  C   2.47498174799733     -0.55237947303224      0.09936117931571
  N   2.84030888555619     -1.82662271930675      0.08961920923723
  H   2.95931885116301      2.75392422757833      0.10459017071388
  H   0.08441914774988      3.16509461424337     -0.27401485683613
  H   -4.02315378903042     -2.06952211044658      0.22092644340479
  H   -2.73934338714886     -3.93856040680241     -0.40517185949136
  H   -0.41502097802128     -4.03384117976259     -0.59813724370881
  H   2.09061865570277     -2.49879524837638     -0.03766528175556
  H   3.80912102405130     -2.09698722725067      0.08156214628265
