26
Coordinates from ORCA-job ./opt_b97-3c_parallel
  N   5.25865367718580      0.96940701232308     -0.05151706474247
  C   4.12830505016938      0.69959067744013     -0.05177159113203
  C   2.77349416825965      0.28471675406186     -0.04257845845927
  C   1.81141333323013      1.27488409220001     -0.04812983050225
  C   0.41090652768735      1.23540077700009     -0.02117004357117
  C   -0.23634849538576      2.48683428080536      0.00317375760470
  C   -1.61008154624572      2.61556477709147      0.03466392304855
  C   -2.39613036547733      1.47474593477040      0.03708061506575
  N   -3.74499782070388      1.40551991951449      0.06256752122502
  C   -4.02884189745258      0.09503282521787      0.04588234745687
  C   -2.88213250560827     -0.73383136974434      0.00681726586410
  C   -2.89762260148180     -2.13189412310156     -0.00652889041389
  N   -2.91413906594677     -3.29610569773406     -0.01833849835287
  C   -1.77817169113552      0.15445728696381     -0.00083628993558
  C   -0.37714994252953      0.01763681702534     -0.03003928438517
  C   0.16485604443541     -1.28571472752358     -0.11466114443975
  N   1.37922595452708     -1.77950714346878     -0.07697403973883
  C   2.54364895249856     -1.13129523841400      0.01138792316086
  N   3.60147004858504     -1.94224166080069      0.13892525935044
  H   2.22336777247700      2.27611996346668     -0.06779618792483
  H   0.37687889642750      3.37739836890568     -0.00178542135677
  H   -2.07974257844979      3.58916418173567      0.05617924519491
  H   -5.04983623158975     -0.25631541064319      0.06407894114987
  H   -0.57817046510063     -2.06721824904794     -0.21546410702282
  H   3.43143367105881     -2.93282627054110      0.14179037226034
  H   4.54366533436560     -1.59963061020274      0.20848284899626
