27
Coordinates from ORCA-job ./opt_b97-3c_parallel
  N   0.23635982680306     -4.35055337438057      0.26130657069031
  C   0.34557419984610     -3.19475568397751      0.19177842022035
  C   0.49261622826882     -1.79269108853058      0.10653948006304
  C   1.79199199916584     -1.28124884612788      0.08526429462827
  C   1.97605091379113      0.07516011768675     -0.01030856310114
  C   3.10509005363628      0.93546282760861     -0.05327101541823
  N   4.41567158376182      0.61118658338857     -0.00386348306967
  N   2.72934779508149      2.24397680203476     -0.10657303762284
  C   1.38982689508744      2.25596812874477     -0.09832210264557
  C   0.83854854207279      0.95623679498103     -0.04826482315413
  C   -0.48458769008877      0.50231868670238      0.00055960144502
  N   -1.42888057923330      1.45886000625515      0.06695134196317
  C   -2.74038826512657      1.39751304734602      0.00697466509739
  N   -3.35867745181484      2.61147356646605      0.10079719224185
  C   -3.59517692298334      0.27579679276826     -0.18159670552774
  C   -3.19443116358258     -1.03039408366947     -0.18403201721961
  C   -1.91849749882009     -1.57945142751465     -0.06343876259840
  C   -0.67479125956220     -0.95767301360828      0.02437078724050
  H   2.62036920122034     -1.97524604408922      0.14767312151727
  H   4.70273007875164     -0.32110721405812     -0.23898085126891
  H   5.06375379893968      1.34600471067770     -0.22989753431296
  H   0.84592155022526      3.18623398089300     -0.13685356744113
  H   -4.32933406450822      2.65967280934142      0.34990402779571
  H   -2.77686075446031      3.38139204384298      0.38159863844636
  H   -4.65268927040421      0.47799563203934     -0.29598033554489
  H   -3.98819322005700     -1.76023387471228     -0.29461268570734
  H   -1.89549837461025     -2.66064843190822     -0.06853012601669
