27
Coordinates from ORCA-job ./opt_b97-3c_parallel
  N   5.65898715139667      0.19287503389134      0.00034252380498
  C   4.53888257002900     -0.12167862545336      0.00014951858526
  C   3.17077194112951     -0.41788271955648      0.00016078254700
  C   2.55491175644268     -1.67179107493735      0.00053191186532
  C   1.15621308854478     -1.48552539670971      0.00039924232901
  C   0.09494779189122     -2.35916656888197      0.00063547347453
  C   -1.20084060278963     -1.84950793908520      0.00040243823633
  C   -1.50674286740850     -0.48539866365259     -0.00005884600355
  C   -2.89715145381527     -0.10726095088203     -0.00025926960697
  C   -3.85264323982364     -1.15650569507586     -0.00000783452886
  N   -4.65159044213378     -2.00067330049270      0.00005737006670
  C   -3.46051267780893      1.16260212461186     -0.00067619331883
  C   -2.83929960313388      2.39927559640814     -0.00103722341834
  C   -1.47273255523626      2.64654637715619     -0.00106174118699
  N   -0.42865454403365      1.84229129666107     -0.00076440643163
  C   -0.39693782461070      0.47819378260139     -0.00031824242458
  C   0.88370221950415     -0.07152115727402     -0.00007965077312
  C   2.14897704815420      0.59161163969150     -0.00023459178425
  N   2.32459528776947      1.90537396600846     -0.00066048078690
  H   3.07236750025406     -2.61694087896767      0.00086853132103
  H   0.24754851860234     -3.43022431235599      0.00099577054620
  H   -2.01960337306268     -2.55312988219363      0.00059006468478
  H   -4.54300042563581      1.17875060169008     -0.00073233599593
  H   -3.48021134326923      3.27035377968070     -0.00133990820668
  H   -1.19593338239466      3.69846814264607     -0.00138780323382
  H   3.24235634366903      2.31669440428443     -0.00072781428332
  H   1.47085701356943      2.45790921738723     -0.00087745117741
