28
Coordinates from ORCA-job ./opt_b97-3c_parallel
  N   -3.77370590933488     -1.78604593110320      0.33361875406470
  C   -2.97402640937816     -0.69508997628831      0.09932909705507
  C   -3.63969624649755      0.51361156783034     -0.21946918300534
  C   -3.04521181388727      1.73774382032198     -0.40953297758684
  N   -1.79937001218002      2.17703623624660     -0.27769898276990
  C   -0.71350774295227      1.42967708245713     -0.04126590080398
  N   0.40689717879498      2.14454235521083      0.15531562196619
  C   1.61869401940152      1.58763405858463      0.16252529913301
  N   2.67700151140905      2.43442344705860      0.40874308257062
  C   1.78937092513437      0.23527829621612     -0.10886079244596
  C   2.86710024931691     -0.67131211779885     -0.22014160314039
  N   4.19505853819965     -0.37336289445327     -0.22604636943024
  N   2.45246839233331     -1.96265637694043     -0.28985464827935
  C   1.10842704250719     -1.91989735067581     -0.23031405784402
  N   0.33164244405966     -3.00329670209681     -0.27126105592447
  C   0.61323922792611     -0.57190872963941     -0.14706944214466
  C   -0.66223789121124     -0.05939585520414     -0.03288764129146
  N   -1.68201645901595     -0.94674678741018      0.13639450287946
  H   -4.71464930471549     -1.61562201519430      0.64029560169306
  H   -3.31626184864706     -2.56439267604072      0.77595199917452
  H   -4.71439788568828      0.46892570217856     -0.34580854587820
  H   -3.73305900798779      2.52972325633560     -0.70219467536377
  H   3.43413926486155      2.04123830636537      0.94448303680725
  H   2.37513126250279      3.33580280606049      0.74538761695615
  H   4.78941315716114     -1.13419834084477     -0.51312567089920
  H   4.44896984914189      0.51721795685694     -0.62090722260832
  H   0.74076946608053     -3.91910085094512     -0.23051639942961
  H   -0.65392389123434     -2.85053259898727     -0.10869560455523
