27
Coordinates from ORCA-job ./opt_b97-3c_parallel
  N   -0.31670425605535     -4.31574015822589      0.21030719344165
  C   -0.40743704285295     -3.15775897258181      0.15588005593197
  C   -0.53676013378065     -1.75271579188185      0.09244988239083
  C   -1.82967900920559     -1.21846027876927      0.07376755465284
  C   -1.99929503759512      0.13961155116794     -0.00502338719742
  C   -3.16182060983979      0.96560590551248     -0.02626243007082
  N   -4.44873892466019      0.54249594962980     -0.04765232811025
  C   -2.73128705147178      2.31649677682815     -0.07845268857233
  C   -1.34781189639539      2.34153856087955     -0.07910558471636
  C   -0.85390324595565      1.01140603710441     -0.03846295908163
  C   0.45704748894652      0.53471851138661      0.00258631405602
  N   1.43549101162841      1.45634911604702      0.04655573787931
  C   2.74539999379056      1.31757310045385      0.03564298432025
  N   3.43684543179843      2.46363336408174      0.24574221691998
  N   3.58364641140660      0.25889150125804     -0.16805281780451
  C   3.14738030521743     -0.97685105358174     -0.19830935060321
  C   1.87653040306829     -1.54184193594911     -0.06396236860214
  C   0.62993601137059     -0.92954825273340      0.02464078639626
  H   -2.66670457669389     -1.90431835549900      0.11341612304779
  H   -4.65417735358860     -0.40551755021787      0.21184983486265
  H   -5.17398160961598      1.20382230990487      0.16435134834551
  H   -3.38507419876753      3.17439483932543     -0.11156709121460
  H   -0.72984410721522      3.22367369469939     -0.10334935142038
  H   2.93712099013963      3.33239800427469      0.26905973493913
  H   4.42823319302701      2.45720186034867      0.09647506572226
  H   3.94098560757084     -1.70480945742098     -0.35243292893385
  H   1.87459890532943     -2.62359983994172     -0.08511610417899
