27
Coordinates from ORCA-job ./opt_b97-3c_parallel
  N   -5.89036994169645     -0.20382374276563     -0.09790048144096
  C   -4.73030631696614     -0.13956086885150     -0.05619463197037
  C   -3.31816478403654     -0.06105435362368     -0.00804746618458
  C   -2.58162541497572     -1.21067925619024     -0.35913274234789
  C   -1.22993539088898     -1.39910747794701     -0.30517998727949
  C   -0.18248279127708     -0.49839089718297      0.00325514595825
  C   -0.37871973976030      0.96642258249768      0.12442124310090
  N   -1.52574150667231      1.57349612244494      0.45918023084543
  C   -2.76237343310983      1.13635090073559      0.46194118918242
  N   0.64256194995137      1.80979853708626     -0.04211310329588
  C   1.89640165208094      1.35731273803870     -0.13485849828346
  N   2.84911203743376      2.29774890256858     -0.39718469544434
  C   2.21608782657535      0.01424254601118      0.08169682367704
  C   3.41831655029647     -0.70262577233178      0.16603024124664
  N   4.68783388224797     -0.17456716515271      0.17511081022027
  C   3.09115099307940     -2.09245859516340      0.19866231114549
  C   1.72090082413073     -2.23355952833310      0.14426389162682
  C   1.13279363111984     -0.93430740485970      0.08633394634604
  H   -3.16913465901657     -2.06523617006648     -0.66905070588632
  H   -0.89893720128704     -2.39404846681204     -0.57302449747168
  H   -3.47486910266414      1.85039625796494      0.86678385563887
  H   3.66961744791444      1.99773918247252     -0.89682558615400
  H   2.47836281955734      3.19209436096068     -0.67645116220965
  H   4.78431512519060      0.71023646978956      0.64854825124937
  H   5.41701961982003     -0.81727622588287      0.43704648101093
  H   3.81081331285721     -2.89376410076645      0.27495725277736
  H   1.18998296839602     -3.17057344254126      0.19153150014177
