29
Coordinates from ORCA-job ./opt_b97-3c_parallel
  N   5.32831097630577      0.81694916469596     -0.10771515543553
  C   4.20031001395082      0.53001566231977     -0.09149786916677
  C   2.81530392407285      0.26183373459120     -0.05974697548644
  C   2.42793915637405     -1.06670347360497     -0.07596179689328
  C   1.17150178828962     -1.65712357656201     -0.03434445656430
  C   1.17287512074500     -3.07817599571447     -0.04463600726845
  N   1.25183589220602     -4.23660339790559     -0.05272285406168
  C   -0.10881577907419     -1.02774768813800      0.00518467876049
  N   -1.13276145274627     -1.87458109573723      0.03191557214699
  C   -2.41338152031835     -1.46605475486216      0.02079451985990
  N   -3.32884754846167     -2.45534666850813      0.03490593241799
  C   -2.72218369016803     -0.10486323609797     -0.03599522237200
  C   -3.88219177991268      0.68675587121210     -0.08543940048488
  N   -3.60885034606839      2.00621748301938     -0.12019829350021
  C   -2.25999067818667      2.10647579859730     -0.09019935979518
  N   -1.61847424794968      3.27195685167982     -0.10906776771721
  C   -1.63017136054837      0.81441614103548     -0.03910607600431
  C   -0.29757330009637      0.43659503925818     -0.00293519395434
  N   0.61874398004944      1.43313067097255      0.03607724462185
  C   1.93459813952677      1.39951317723430      0.03141251269362
  N   2.53306676091857      2.61321212284785      0.09324930871111
  H   3.24846243327149     -1.77002759659510     -0.12167850022241
  H   -4.29771455997736     -2.26351413718267      0.20388039213310
  H   -2.99380084176407     -3.39098815996028      0.18439588078980
  H   -4.91038454059150      0.35449737950357     -0.10371730400853
  H   -2.13116204887640      4.13044670339905     -0.20384092098388
  H   -0.61079794911891      3.23778866517651     -0.12666652552161
  H   1.96099385655889      3.40991759637798      0.30048085715032
  H   3.52625978358875      2.69820515884728      0.21698591435574
