33
Coordinates from ORCA-job ./opt_b97-3c_parallel
  N   5.46452944618149      2.13679412693322     -0.10078462989742
  C   4.39993787680405      1.66656483481039     -0.06553436300502
  C   3.15467522655538      1.02877486130570     -0.03109127033493
  C   1.88341162861725      1.62395963947263      0.00429346873641
  C   0.91311525498751      0.60929736485154     -0.02271690345891
  C   1.61576761391598     -0.64841598565952     -0.05020152637419
  C   2.99254974624554     -0.38761874113371     -0.08052324904860
  N   4.01738151711211     -1.31841966886502     -0.12020506911607
  C   0.91765685670118     -1.85409008374428      0.05308939604579
  N   1.57646065396147     -3.03992152466982      0.13985548509588
  C   -0.49451916905750     -1.80924399066181      0.03540747021387
  C   -1.16976568295299     -3.03677029014002      0.13710316305367
  N   -1.67634968280086     -4.08198074760808      0.23130070655939
  C   -1.23676934873115     -0.58812258244953     -0.04452355823067
  C   -2.61315175521528     -0.68739563651765     -0.13451752832087
  C   -3.63279053518101      0.28721019564611     -0.15541423491469
  N   -4.90077823417985     -0.18939051798844     -0.31980235365637
  N   -3.58045873883263      1.60797082948690     -0.04483970550818
  C   -2.46019832370597      2.32280510520867      0.02942560463968
  N   -2.69536793697781      3.67072622594926      0.08501491637300
  C   -1.11241187840805      1.93024998647926      0.01567205665228
  C   -0.50158990269936      0.68555530275493     -0.01768898881186
  H   1.72263146186251      2.68870731931234      0.02046153947114
  H   3.91047909700620     -2.01588004937350     -0.84282279559727
  H   4.93343624296793     -0.89744115430450     -0.17909048968121
  H   2.50826647611164     -3.01012264913135      0.52186952009204
  H   1.03899380303756     -3.85419454047227      0.39077912579431
  H   -2.98869481069797     -1.70061465677141     -0.19767162100249
  H   -5.64748364233849      0.46101891425802     -0.15335084684648
  H   -5.09686608337394     -1.16091748711391     -0.16569937219807
  H   -3.64417192252311      3.93867264047182      0.27737896637412
  H   -1.98015913990689      4.28203119194392      0.43319074610028
  H   -0.42329951088497      2.76361103142014      0.04315528540148
