29
Coordinates from ORCA-job ./opt_b97-3c_parallel
  N   -2.12270820968042      3.18958103911896     -1.05044427148913
  C   -1.32351102265734      2.43719149573955     -0.66965157118887
  C   -0.27004279574840      1.56656291142415     -0.30179939564841
  C   1.01397746011388      2.13696826345465     -0.22977203501261
  C   2.08914803105560      1.32735111612240      0.00831688222899
  C   3.47840600822816      1.56037955383666      0.18463044896266
  N   4.14627504294438      0.42765567422392      0.38251052232114
  C   3.22489927527506     -0.58661310851433      0.32005482161636
  N   3.65374803337683     -1.85936405448780      0.48594736262171
  C   1.91640339548755     -0.09662485360798      0.07846833736806
  C   0.66593603627066     -0.71059311448732     -0.13382095859794
  C   0.60503312708849     -2.08222421396341     -0.42788994892697
  C   -0.48179913810554     -2.90064460220624     -0.67744276458183
  C   -1.83063977633700     -2.67160033242155     -0.54245542391386
  C   -2.45678814483094     -1.51518247012499     -0.05234005740093
  N   -3.78900236790819     -1.60497625597351      0.17774012119068
  C   -1.82473472484817     -0.26075852385355      0.18609788220768
  C   -2.66071778816700      0.66626725962403      0.84885793583673
  N   -3.41266082491730      1.30158378426596      1.47066437088190
  C   -0.49674134727047      0.17431426220471     -0.12148357347802
  H   1.12105104130431      3.20388641469868     -0.36711393429531
  H   3.98494596431772      2.51413989753325      0.18944916301691
  H   4.58914004418286     -1.94230340461312      0.85078630054408
  H   2.99817911196457     -2.54353494846064      0.82351763279002
  H   1.56135381851943     -2.54696202700460     -0.61915518786987
  H   -0.22501049560576     -3.89709103907486     -1.01850337094328
  H   -2.48805721404824     -3.50000011438033     -0.77495184105544
  H   -4.29411130067967     -0.84045666995034      0.59109827226092
  H   -4.23280164502411     -2.50325978982154      0.18447860075368
