23
Coordinates from ORCA-job ./opt_b97-3c_parallel
  N   4.27503068287171      1.10027769110362      0.02958093253743
  C   3.02555912995877      0.58784355486226     -0.00656465366541
  C   1.80981936619722      1.31951148854444     -0.00392471529156
  C   0.80811015015687      0.35977323071120     -0.00190337691763
  C   1.52654285929390     -0.93282437849834     -0.00137012532041
  N   0.92337657572903     -2.11576415384978     -0.00496981932783
  C   -0.40627482952537     -2.10787957510713     -0.00617751639277
  C   -1.23249581939157     -0.97106279358020     -0.00266361618604
  C   -2.60457095411059     -1.18872436267271     -0.00154847135995
  C   -3.65604250749927     -0.28444237122263      0.00062027059872
  C   -3.59219144606712      1.10401640391325      0.00129139785367
  N   -2.56052737055832      1.94132025565758      0.00362694348546
  C   -1.27813827606668      1.58332028446029      0.00453631450892
  C   -0.60089470519895      0.36164898084778      0.00016868863274
  N   2.85375360758914     -0.75772034835408     -0.00413423330940
  H   5.02795481081313      0.46200585464518     -0.15982589307932
  H   4.42292475426938      2.05950831231252     -0.22359197108505
  H   1.71901285698795      2.39386899287355      0.00167120012860
  H   -0.88363794125919     -3.08219505127777     -0.00885786152934
  H   -2.89508468599355     -2.23435108598291     -0.00319604234106
  H   -4.65411366450255     -0.70448366355836      0.00036854929185
  H   -4.55285267471066      1.61316664988845      0.00011720749016
  H   -0.61813342318329      2.44599125918380      0.00924467027822
