22
Coordinates from ORCA-job ./opt_b97-3c_parallel
  N   2.39409790915748      2.34999221854719     -0.45976559649110
  C   1.48648437025080      1.40493011331327     -0.17426813374079
  N   0.20876960838344      1.82316848810964     -0.16249702349243
  C   -0.75759588074399      0.93698882075043      0.02334427988820
  N   -1.92507847313635      1.39886156137409      0.46559828697106
  C   -3.05446096185341      0.72516208285970      0.60509348623019
  N   -3.52243609023123     -0.35487780086627     -0.00167566203998
  C   -2.71762983118800     -1.20214567669904     -0.64462071648483
  N   -1.42246373292395     -1.40432690513323     -0.54907576295009
  C   -0.49987481602198     -0.54703565249371     -0.10118824865369
  C   0.81090515057057     -0.92875455737839      0.12588622930516
  C   1.44179301326849     -2.19588597617309      0.23874145704165
  C   2.80586362162220     -1.98112226036859      0.33170499197782
  C   3.06912520215899     -0.58931882307410      0.24060090892514
  C   1.85088312735818      0.07259111398801      0.12482554067913
  H   2.07794107260744      3.29599291321727     -0.57832314869630
  H   3.37743731161233      2.15973175289999     -0.44197534687842
  H   -3.76475418503770      1.20407667373985      1.27379077490671
  H   -3.23440019472631     -1.91757483319355     -1.27799197532877
  H   0.93161832537641     -3.14437487369579      0.26207653139208
  H   3.55849334904965     -2.74566536044461      0.44603485068513
  H   4.05402906864678     -0.14573694847921      0.24251002145380
