31
Coordinates from ORCA-job ./opt_b97-3c_parallel
  N   5.73569136683384      0.13252414961991     -0.19314688114247
  C   4.58167781246709      0.28763468597699     -0.12748592231389
  C   3.18284797298665      0.41024055298004     -0.04795125923729
  C   2.64021515691686      1.69657238539660     -0.11281066755417
  C   1.34037323443590      2.12548769440193     -0.06960371114681
  C   0.14122643307371      1.38482947539172      0.01594997757167
  N   -0.97057417542742      2.13430905691267      0.05373280036675
  C   -2.19149085044614      1.58274243103638      0.06242109620687
  N   -3.25463283065886      2.46707863221542      0.14434459544797
  C   -2.35977125846370      0.21536387158387     -0.04069161177620
  C   -3.49278011249687     -0.64381879619924     -0.10731156295585
  N   -4.79069482165768     -0.21463596475743     -0.17735942735176
  C   -3.05466167918969     -1.97663253280176     -0.05201731531369
  C   -1.65401641385733     -1.97543891941720      0.01366069088947
  N   -0.81453943847866     -3.02207461165823      0.04477592572826
  C   -1.19232559026932     -0.60807606421735      0.00062811817300
  C   0.08978257074061     -0.08586337637873      0.05175898152975
  N   1.11957823065215     -0.97509976466773      0.13368904668282
  C   2.42387226264013     -0.79913150826422      0.11361875092916
  N   3.14904097010425     -1.94068744113074      0.29149446533587
  H   3.37773301813543      2.48355046068451     -0.21278042866682
  H   1.18071598242127      3.19324248396134     -0.12131748074916
  H   -2.93795480042161      3.40111501491815      0.35754139833179
  H   -3.99898868421912      2.17223050944216      0.75740084620341
  H   -5.46799172440098     -0.90838603023291     -0.44703935178593
  H   -4.92825554752090      0.66395876479795     -0.65226737354077
  H   -3.68540830612491     -2.85107437700291     -0.09470194395606
  H   -1.15046972283643     -3.94282208234751      0.26077217763442
  H   0.15462230050448     -2.77452791067427      0.21367402862442
  H   2.66392560702757     -2.80960934956054      0.16783502041297
  H   4.13456670762952     -1.93870210070905      0.09411808302214
