29
Coordinates from ORCA-job ./opt_b97-3c_parallel
  N   -3.32127361470565     -3.33459651772279     -0.03213942790012
  C   -2.84579046796210     -2.27221597935339     -0.03587376944965
  C   -2.26853500677174     -0.98101702198648     -0.03673296899260
  C   -3.19415143030500      0.05392931000787     -0.13753509175507
  N   -3.08403059797185      1.36949864033340     -0.12882057995123
  C   -1.90981881392302      2.01988559151063     -0.02157356223936
  N   -2.09081996832089      3.37301363079566      0.03970779793901
  N   -0.63865126589367      1.64328700883364     -0.00703803373189
  C   -0.12135171262117      0.38072493692007     -0.00867942287622
  C   -0.82882696967795     -0.89267177432555      0.02304551720824
  C   -0.08678132355435     -2.07250804684257      0.08436333435743
  C   1.30885781749303     -2.11217761280269      0.08771050887788
  C   1.99292575684357     -0.92759710806061      0.02521104893868
  C   3.40180004887584     -0.59801807598191     -0.00318306169424
  N   4.39454140455443     -1.51253038883769     -0.00649667833116
  C   3.54344197466155      0.78682492656884     -0.08190770135183
  C   2.25268362976233      1.35279317876443     -0.09269635395891
  N   1.90644220043721      2.63307973530108     -0.15307622306787
  C   1.26937824850078      0.29492759861858     -0.02323841884104
  H   -4.22405102548652     -0.28144013704217     -0.22498085338264
  H   -1.34446298256165      3.93037992864991      0.41190681824589
  H   -3.03078140737939      3.67791493678219      0.21777665107834
  H   -0.62460412175261     -3.00837876018705      0.11633682962137
  H   1.80727568510370     -3.07322886799712      0.12305948899720
  H   5.33792726262293     -1.21471746575639      0.16311066544192
  H   4.18663175282228     -2.45751501750662      0.25945867977875
  H   4.47309621719211      1.33127373683917     -0.12910321423049
  H   2.58157190099564      3.36812465707344     -0.26108191945595
  H   0.89586771932213      2.79289049060420     -0.16665744867439
