28
Coordinates from ORCA-job ./opt_b97-3c_parallel
  N   -5.51958547481095     -0.07186213750636     -0.09225386216034
  C   -4.36456617162380      0.07720474216281     -0.06038374328032
  C   -2.96091652842068      0.19256237687975     -0.02294634011208
  C   -2.43438630553654      1.48642634359222     -0.11976081732753
  N   -1.21739743616476      1.96975514864957     -0.08196170546916
  C   -0.03553289236008      1.31924969627824     -0.00388054545802
  C   1.07085122684011      2.17510434352307      0.06678354786488
  C   2.38080875839761      1.72120884609859      0.08083445460772
  C   2.63091327957052      0.36859479754184      0.01442532327342
  C   3.84105318960546     -0.38355952850505     -0.01324129881376
  N   5.10403629197730      0.12324629249033     -0.01781197223571
  C   3.49575515596135     -1.75198935068106     -0.11169294747987
  C   2.11403257403306     -1.85905264120187     -0.13297014741231
  C   1.53343424760784     -0.56316745032186     -0.05062241810618
  C   0.19261339151392     -0.13996880587011     -0.00858612931610
  C   -0.82410087419762     -1.10408657327141      0.08939555775537
  C   -2.20678322644284     -1.01631695121013      0.09314261188957
  N   -2.91386486891421     -2.17252381907894      0.25104002718635
  H   -3.19405051074676      2.25613942168375     -0.23487955023035
  H   0.85402642956860      3.23227653981665      0.08336501354041
  H   3.18636464191296      2.44616748341827      0.12234174234666
  H   5.85674163557128     -0.50057905382599      0.21386545796640
  H   5.23686740047761      1.06302144813749      0.31152533982317
  H   4.19701305610633     -2.57006197441052     -0.17114592417623
  H   1.58249397520523     -2.79427982458720     -0.21680876383992
  H   -0.45777171300655     -2.11830058206471      0.19170311018907
  H   -3.90394771346867     -2.17113720655178      0.07670484016396
  H   -2.44654546015580     -3.04835624458558      0.10829871451091
