30
Coordinates from ORCA-job ./opt_b97-3c_parallel
  N   3.99561267019966      2.40604054402632     -0.61379431284860
  C   3.17523672812050      1.60660455750121     -0.40134060975269
  C   2.20685492673758      0.61914881068829     -0.13681870969768
  C   2.68476621320832     -0.71267659503253     -0.09325271185948
  N   3.99530423482128     -0.91224349793309     -0.38834052671265
  C   1.95471429163325     -1.83733548107303      0.28585125327094
  C   0.59047456925436     -2.02602136063539      0.42244859700526
  N   0.21070441650634     -3.19643263020099      0.99515453805583
  C   -0.46585407206516     -1.10106606352353      0.04124876032045
  C   -1.75740967676219     -1.61889820182866     -0.28932010707162
  N   -1.93947438048845     -2.99379969867254     -0.56693324015343
  N   -2.87861140411649     -0.91694331302126     -0.35468046909616
  C   -2.78617064856167      0.38244690315486     -0.09757285567564
  N   -3.78840394271385      1.28825169812523     -0.08310196467178
  C   -3.13827695639980      2.44026648044514      0.13657572038595
  N   -1.79227121942606      2.37767961045769      0.26429421858078
  C   -1.53100805338688      1.04730539566746      0.12720819473255
  C   -0.33214279617383      0.32525303296947      0.15026413112171
  C   0.91034216328539      1.09160775593922      0.19784435554437
  N   0.77964941289633      2.39043130154134      0.45540328319993
  H   4.62997048302908     -0.13627293216563     -0.45731477877792
  H   4.40333995724504     -1.81603095487206     -0.24471118442095
  H   2.55971630758340     -2.70893106462746      0.51036672928178
  H   0.90439898455567     -3.91001746850161      1.12942667020851
  H   -0.74138172374760     -3.51091053588447      0.84444407616287
  H   -2.90319707785221     -3.12767376742591     -0.84018636147049
  H   -1.32911167517025     -3.33388994037086     -1.29773996327682
  H   -3.65898859516446      3.38320241611363      0.21555027988226
  H   -0.17881100465027      2.79548313195365      0.48059420537069
  H   1.58179464670307      2.99559525508538      0.39543957856208
