29
Coordinates from ORCA-job ./opt_b97-3c_parallel
  N   5.24436655755621     -0.44984085349080     -0.16530458896533
  C   4.09357220518236     -0.25926328546785     -0.13055220189256
  C   2.71091655789161     -0.03300230795436     -0.08414625708210
  C   2.26888649184209      1.28991382589285      0.20021569685701
  N   3.20491386899100      2.18555931486264      0.59097194056623
  N   1.05853272877445      1.82027670614871      0.10617124867951
  C   -0.11766211639958      1.23227966194125     -0.08129632312629
  N   -1.13125516500211      2.09080179302169     -0.24898273921415
  C   -2.40894310792831      1.69607072152688     -0.22928072335193
  N   -3.32067706194402      2.66034769097105     -0.50272958183354
  C   -2.75741610158614      0.36321625254504      0.03395762219217
  C   -3.93460514500385     -0.39306603421691      0.12558571645603
  N   -3.69592654450126     -1.71634651781622      0.26855357109602
  C   -2.35134608508633     -1.84948077273370      0.25245770061035
  N   -1.73018917675701     -3.02553537095701      0.36456237655609
  C   -1.69227672955476     -0.57994425437177      0.12232501546841
  C   -0.35927958668439     -0.24137518579799     -0.02540514258586
  N   0.53829815357794     -1.23684834110578     -0.13053197996969
  C   1.85432371535568     -1.15424621131220     -0.26471869223247
  N   2.44587024737652     -2.32909502334576     -0.60004064429270
  H   4.18376830997367      1.96255538080775      0.59673121748516
  H   2.92304619376285      3.14839623907043      0.61727778578593
  H   -2.98435390206511      3.60731831109778     -0.48439227418942
  H   -4.28698749532951      2.51155190395175     -0.27958838879262
  H   -4.95541610613494     -0.03934923612536      0.08681468769645
  H   -2.26676423224688     -3.87419511006321      0.33402723241837
  H   -0.73458417975643     -3.02543402921014      0.20231426541970
  H   1.87656731425035     -3.15373381947671     -0.58424877948863
  H   3.44300479694584     -2.43992852909205     -0.55942846997012
