28
Coordinates from ORCA-job ./opt_b97-3c_parallel
  N   -3.25646853177241      2.19419288444691     -0.02675882768874
  C   -2.70564091122410      0.92831748813971     -0.02142584734426
  C   -3.62102436143485     -0.13887454919651     -0.09382201909055
  C   -3.30262444530432     -1.48445107730939     -0.08569658872584
  C   -2.07605754369447     -2.10822603675613     -0.02379586791080
  C   -0.77978347014800     -1.54601447587622      0.01730468038489
  C   0.30994578882468     -2.44145711198595      0.05379098888586
  C   1.64087611313218     -2.05247154906019      0.05628998173379
  C   1.92460036018528     -0.70470734202248      0.02590271062254
  C   3.10786219095778      0.09169917880138     -0.01398989957190
  N   4.38987810494439     -0.34466667679351     -0.05655596621527
  N   2.83700389209283      1.41341841644032     -0.06963307014798
  C   1.48940499523703      1.51410572230050     -0.05695183775682
  N   0.84660333957497      2.68181597612182     -0.08561630223055
  C   0.84558625700834      0.23466648315429      0.00584971369929
  C   -0.50441071124101     -0.10944339133964      0.00681151660412
  N   -1.38135098466789      0.93540570617210      0.01631164525975
  H   -4.21349432489727      2.27459650370760      0.26869364301155
  H   -2.65283107274482      2.91277611440845      0.33410502840664
  H   -4.67006490450780      0.12203694131267     -0.14882333361527
  H   -4.15405832650923     -2.15573482675031     -0.12567787738231
  H   -2.10211793608158     -3.19104886948214     -0.02090027723762
  H   0.07770274225413     -3.49833849880386      0.06760707806019
  H   2.41809925054257     -2.80751449977577      0.06571384088408
  H   5.09424701488777      0.34736390358507      0.13422481702220
  H   4.58764142766142     -1.26791351952875      0.28406272518736
  H   -0.16047226866314      2.61111446183073     -0.17668167843149
  H   1.35122317308750      3.52542848735927     -0.29173548711291
