32
Coordinates from ORCA-job ./opt_b97-3c_parallel
  N   5.43092856524821      1.51156594223001     -0.39118963441776
  C   4.42718236651157      0.93783091375690     -0.24699904875157
  C   3.18473042335010      0.31475560196926     -0.09356054663225
  C   2.92892302198773     -1.06511660971936      0.09609594546828
  C   1.55175573947732     -1.23802874493633      0.12445201133879
  C   0.72698086851765     -2.37235849081852      0.23614786509376
  N   1.24205664100342     -3.61387169404474      0.44137856209088
  N   -0.59789123049599     -2.29850585641339      0.16622653440332
  C   -1.22790612391622     -1.10510090617179      0.06285443158537
  C   -2.60637175638447     -1.22065732867610     -0.07732603186980
  C   -3.63764216990918     -0.27683067410613     -0.16925049288375
  N   -4.90915169768670     -0.79817559969153     -0.33281746923704
  C   -3.54280245220421      1.10236671943668     -0.02699025835425
  C   -2.39997508862211      1.86033295285770      0.21592196957759
  N   -2.59171974832407      3.22474545690239      0.38022130822167
  C   -1.07139484307636      1.42666725384744      0.22785444329749
  C   -0.48772052068748      0.17069975176606      0.06636603682395
  C   0.91264217101112      0.04731221664606     -0.01389231771397
  C   1.94849793739319      1.00440753516356     -0.17090508148195
  N   1.82657832418800      2.36809457035391     -0.35278364095171
  H   3.69524550607164     -1.81819821479905      0.18421143125899
  H   0.60851601675448     -4.37886661288570      0.28611336881292
  H   2.20560862649867     -3.77913124221089      0.21591719664033
  H   -2.92319763461787     -2.25573128148928     -0.11794716740950
  H   -5.60695057532456     -0.17519430955239     -0.69995012619588
  H   -4.96298275842811     -1.72104972924396     -0.72677994075748
  H   -4.47541227398238      1.65335947256245     -0.08306118397922
  H   -1.83922035533475      3.72009839224145      0.82699442339653
  H   -3.49138525291614      3.50374765077232      0.73191825687666
  H   -0.36161851888109      2.21855609472395      0.42597687517649
  H   1.07323272416669      2.64111043764206     -0.96619326754679
  H   2.69167461971132      2.81043521288775     -0.62850600758025
