24
Coordinates from ORCA-job ./opt_b97-3c_parallel
  N   4.90608945752578     -1.93038157221642     -0.00185329978991
  C   3.84302659487639     -1.46285782470123     -0.00167390743407
  C   2.53668255386815     -0.91236523588479     -0.00129016475984
  C   1.46695744823011     -1.83893053599817     -0.00183892788887
  N   0.17781393466711     -1.66278529085083     -0.00148521899855
  C   -0.55748075864875     -0.52826760773604     -0.00052277252104
  C   -0.09976284575586      0.88276964552357      0.00009122788923
  C   -1.06044444942428      1.90051240255678      0.00081076932810
  C   -2.42913273946914      1.66028138435895      0.00111989949717
  C   -2.88562851427863      0.35928421628764      0.00069413785758
  C   -4.15074681343436     -0.25424157872676      0.00080111500069
  N   -4.04606742737548     -1.60736496155389      0.00012443646581
  C   -2.73628932502012     -1.89837708644532     -0.00046054284462
  C   -1.93739855566063     -0.72313200707024     -0.00013615508188
  C   1.27752985617505      1.26200602532998      0.00006474036799
  C   1.56478670890424      2.65630068057497      0.00074235236678
  N   1.82475101593066      3.78761598920862      0.00127504735196
  C   2.42307845332980      0.47260012323632     -0.00047329948700
  H   1.77009426314236     -2.88234418262176     -0.00267590463487
  H   -0.72302152629718      2.92568842418714      0.00119794070806
  H   -3.11458089869462      2.49795088123544      0.00170759459959
  H   -5.11793086581106      0.22532952670356      0.00134374217148
  H   -2.38714236558287     -2.91814466826623     -0.00107068900645
  H   3.35678820780331      1.01790824196869     -0.00025069085731
