28
Coordinates from ORCA-job ./opt_b97-3c_parallel
  N   -4.00985989549847     -2.63539359523915     -0.00558855035351
  C   -3.30466335526729     -1.71271463804822      0.01227720973457
  C   -2.53604589966407     -0.51884133448237      0.06501578140940
  C   -3.22419528597995      0.58461919053464      0.56933622073447
  N   -2.92564696788885      1.87718303449279      0.61703392742295
  C   -1.79838265030118      2.38480499487687      0.14250555397185
  C   -0.58140097511797      1.80335492926652     -0.20302643641757
  C   0.33028871720642      2.69532956811142     -0.79466775067396
  N   1.10560959782725      3.43207239667027     -1.26053840747407
  C   -0.16826047949694      0.41306287209484     -0.07380600932078
  C   -1.13523980765306     -0.66427730047745     -0.23069039982412
  N   -0.76999317290986     -1.90389129615672     -0.55966890613387
  C   0.52391204299265     -2.24060707520026     -0.56587253723997
  C   1.49795597784773     -1.36625251396856     -0.17761750410376
  C   2.90457799213947     -1.52414917881470      0.05280796412548
  N   3.59380380826820     -2.66509470082463     -0.12697572905973
  C   3.42216419545737     -0.29372112409500      0.45685428048344
  C   2.39611906876852      0.66364238479667      0.46372357095258
  N   2.55895033939073      1.92031318189946      0.90534026378061
  C   1.14981170453158      0.01026314531514      0.06705497323414
  H   -4.21552452364442      0.35838342386149      0.94910586458055
  H   -1.83394328928278      3.46288364249111      0.00796616351118
  H   0.73922371109693     -3.25989624237201     -0.87066822402758
  H   4.54167641053024     -2.73588851104253      0.19419565742395
  H   3.10734709154210     -3.53187805657554     -0.26082138083626
  H   4.44855749260361     -0.09711165592321      0.72490279660888
  H   1.97580390099658      2.65872837539356      0.54050406118213
  H   3.50116047110533      2.21136451211554      1.10554007930928
