28
Coordinates from ORCA-job ./opt_b97-3c_parallel
  N   -2.83862340361786     -3.41137634043184     -0.16146816990361
  C   -2.72392758472245     -2.25366221086310     -0.09376189748964
  C   -2.59027885021929     -0.86563862386705     -0.01211627233868
  C   -3.66515557088284      0.06052027178852      0.05580621751123
  N   -3.28171149636767      1.33882666448516      0.13368229396941
  C   -1.92943324512957      1.29185995517300      0.11592167437833
  N   -1.13462798402967      2.34190582168130      0.24040447144122
  C   0.17848159708855      2.15106155026742      0.18367313552700
  N   0.93153486475324      3.34058022198660      0.34371141258864
  C   0.80847516886260      0.89844793219816     -0.03742917458319
  C   2.21414814345194      0.82836756665598     -0.39706625503265
  N   2.77528481740696      1.92477867153364     -0.94384125381754
  C   3.06189699422818     -0.26530583338050     -0.21936101460015
  C   2.74491201100226     -1.56938878363919      0.14683896422654
  N   3.72907998838629     -2.39676613947874      0.55947250885953
  N   1.55457411108137     -2.19919618726219      0.04202670003479
  C   0.40074408633832     -1.62758049718739     -0.12481740453443
  C   -0.03395294850140     -0.27066941214511     -0.05122973434841
  C   -1.42266943208295     -0.06766576204063      0.00608450349255
  H   -4.71140571285406     -0.20859223419237      0.05078960373340
  H   1.56776098878328      3.29423639397542      1.12915749961053
  H   0.27853377246937      4.09795582347113      0.49314380639592
  H   2.27823310766354      2.80882433617409     -0.88842670884410
  H   3.76117589249351      1.93886453855279     -1.12981568655928
  H   4.11561453320684     -0.06805435816452     -0.38555131727684
  H   3.51006691350654     -3.36920463505130      0.67877989732003
  H   4.66816552549426     -2.08258597830971      0.71036034788986
  H   -0.39842742130961     -2.34009360292996     -0.28734821605047
