25
Coordinates from ORCA-job ./opt_b97-3c_parallel
  N   4.23928727888124     -1.84066296983321      0.20886958408427
  C   3.40507904906195     -1.03799377265607      0.10572468007469
  C   2.34848033979956     -0.09825624249109      0.01015203698258
  C   2.72903179983984      1.19097788149020     -0.35445175154782
  N   2.06387912579089      2.33120293537648     -0.31249191302083
  C   0.78203188048644      2.45609473844955     -0.02478562325134
  C   -0.28565007511132      1.54678859272276      0.06220473889127
  C   -1.55611929787433      2.16754964680806      0.16865465365573
  C   -2.73397313844240      1.46632705396461      0.15017433549901
  C   -2.69188651717087      0.08483312024957     -0.00354635002303
  N   -3.72966508170188     -0.75474824187332     -0.09860863604427
  C   -3.17026022632837     -1.98509615246635     -0.25697730788160
  C   -1.78036439396312     -1.97905096031774     -0.22825189402105
  C   -1.40488108603119     -0.61790934110226     -0.07139719515277
  C   -0.20162849638741      0.09551453195246      0.02469336308575
  C   1.03501861688008     -0.60238752584161      0.26184716853565
  N   0.95419002812497     -1.86662207187215      0.68695518129253
  H   3.76573604376755      1.29440304000581     -0.65858784414105
  H   0.48604957945498      3.49360787385325      0.10270169585698
  H   -1.58195282391811      3.24619371058066      0.23082590531936
  H   -3.68926721474028      1.96752580339972      0.22530016798827
  H   -3.80138152266915     -2.85046190021447     -0.40114861809134
  H   -1.16055326138713     -2.83503498963182     -0.43635281603115
  H   0.06300574372685     -2.23980616074377      0.96920070367879
  H   1.78243574471133     -2.39363762380929      0.90654485546141
