28
Coordinates from ORCA-job ./opt_b97-3c_parallel
  N   3.59571729761215      2.44550787574793     -0.38115906051252
  C   3.14150527455907      1.37805333895466     -0.26371151649291
  C   2.60563569794384      0.09619574452916     -0.11772099175807
  C   3.40393261418612     -1.08203909655326     -0.04819583739792
  C   2.59280532965492     -2.19130076345806      0.08330989734251
  C   1.25388682255047     -1.74167712695418      0.09299404151994
  C   0.06429870897277     -2.41759130211426      0.24431150394740
  C   -1.15829804502295     -1.75049962244383      0.19954579816610
  N   -2.34315861420915     -2.52464096138294      0.26361364158965
  C   -1.21175192408886     -0.35339071696596      0.02645387366481
  C   -2.47540681482210      0.27826233087075     -0.31616128858272
  N   -3.33192898975683     -0.40466008012489     -1.09872979893565
  N   -2.94569469001954      1.45904845506085      0.08289265563822
  C   -2.26306897041946      2.52508007369709      0.43038856027246
  C   -0.89637080924987      2.75834791605059      0.30191988499034
  C   0.08070177563197      1.82360001393935      0.05794441704387
  C   0.01926524370581      0.41415736671116      0.00096854629069
  C   1.24395480249471     -0.29568612110810     -0.03675806207938
  H   4.48111555972763     -1.07759919756785     -0.10192567985042
  H   2.91577678459776     -3.21667274382836      0.16476652231826
  H   0.07018351655723     -3.49308697617275      0.38630157034890
  H   -2.14035670143992     -3.49056399489871      0.47000591839478
  H   -3.00186405616055     -2.18052142369767      0.94831295522939
  H   -4.26239459235103     -0.02986187738236     -1.17531155079601
  H   -3.20298632478519     -1.40124032407038     -1.21509953545286
  H   -2.87418408521949      3.33995144095018      0.80724678796279
  H   -0.56803667421087      3.77877213357465      0.45292171647915
  H   1.07759956006085      2.23179743653694     -0.00362339433974
