30
Coordinates from ORCA-job ./opt_b97-3c_parallel
  N   -3.90568818027039     -2.69841309372144      0.61373763730299
  C   -3.00733676446889     -1.98799257738091      0.41773326752503
  C   -1.88405828805081     -1.16230238695853      0.18101688390178
  C   -0.61944351260295     -1.76182902248160      0.04185501991026
  N   -0.52588841704527     -3.16755639577347      0.04939340250798
  C   0.52523764657972     -0.96103560476577     -0.15223708422564
  C   1.79267953089574     -1.57564122277469     -0.53120956684109
  N   1.76748324769371     -2.66355035523756     -1.31413032979498
  N   3.00218719686856     -1.19848848202252     -0.14286894512133
  C   3.32395281887579      0.00864865498147      0.28806368771251
  N   4.39898595191290      0.11356985459960      1.08467946560629
  N   2.78584445376817      1.19217020340252     -0.08897625155787
  C   1.52369106034383      1.35286610752476     -0.34751326600055
  C   0.40714513509054      0.47272530213164     -0.16955394358880
  C   -0.86551441437719      1.06088621683912     -0.08219200943073
  C   -1.33690442854074      2.40275285228386     -0.07373287783070
  C   -0.60402492950074      3.58802069299849     -0.17644746150080
  N   0.00073708843779      4.58117652676981     -0.25905540749018
  C   -2.74529725832768      2.35597891465845      0.08249416716436
  C   -3.17567528378313      1.03846938230180      0.18344601817230
  C   -2.04394122463044      0.22163145509040      0.09050943128196
  H   -1.41664483581947     -3.61023429334101      0.22484912809872
  H   0.14902012453272     -3.51565960303994      0.71561806507779
  H   2.63415218057913     -3.15461329107495     -1.45086139868655
  H   0.89714411935681     -3.16338991043861     -1.43392590404831
  H   4.79032441802633      1.02389972056876      1.24517939374874
  H   4.94999630177660     -0.70173385108750      1.28062857437902
  H   1.27816709106742      2.34920702721677     -0.69060288124043
  H   -3.37223376702692      3.23299155994606      0.11812339177957
  H   -4.19025492906079      0.70234331338524      0.31857919758858
