25
Coordinates from ORCA-job ./opt_b97-3c_parallel
  N   4.70491578947768     -1.16441637009778     -0.08813652180648
  C   3.72768406534325     -0.54000074405085     -0.04964073891253
  C   2.55578795789934      0.26281354013018     -0.00354204194265
  C   2.77173316101625      1.66006517731199     -0.04290907456481
  N   1.93301144734427      2.63151969601583      0.20728065447870
  C   0.60961123526872      2.56455460113408      0.33560824387458
  C   -0.30553895048718      1.56617266800109      0.01922511968816
  C   -1.68267606067703      1.94995540763915     -0.10190927198606
  N   -2.02520808237973      3.27243636826503     -0.20893040167491
  N   -2.70239867563221      1.09526702760139     -0.07298241875671
  C   -2.42579961963902     -0.19628029677738     -0.00162873004214
  N   -3.35716958649589     -1.17053632039245      0.04341186920060
  C   -2.66232894903460     -2.31759062740248      0.04291720496046
  C   -1.25733118306317     -2.14050386977649      0.00971914891373
  C   -0.29616818641289     -3.15314273806101      0.01030612616150
  N   0.52115500766815     -3.98267474804190      0.01173661587447
  C   -1.06443494701680     -0.73914971673782     -0.01170195867724
  C   0.02386553156525      0.13270945227055     -0.01698451735299
  C   1.32639694797770     -0.38588110857384      0.01503365081356
  H   3.78307977385938      1.98070604503327     -0.27225976130852
  H   0.18104125576094      3.48719731186317      0.71373643460875
  H   -1.44932571910339      3.87292022598073     -0.77130948288922
  H   -3.01394286922143      3.41464312048590     -0.33740507893332
  H   -3.16590331984500     -3.27234396097082      0.06915490147934
  H   1.38857244732726     -1.46499186374963      0.01283005029348
