29
Coordinates from ORCA-job ./opt_b97-3c_parallel
  N   -5.44250685218811      0.86686560139391      0.27632847700613
  C   -4.31250645698506      0.60049039426972      0.18820645438621
  C   -2.96627451108097      0.19249032603650      0.08326583427605
  C   -2.01114129585818      1.18713887183536     -0.08050851292455
  C   -0.62508810799044      1.16366341416604     -0.17194067929498
  C   -0.10692384236032      2.45983782069358     -0.42375051029712
  N   0.24510189356874      3.54448022784591     -0.64903523000331
  C   0.29759354373780      0.06240252157996     -0.05221250232586
  C   -0.14741597180960     -1.33246629186214     -0.11122717498958
  C   0.83362128129786     -2.35131463289735     -0.21023982330944
  C   2.18526884019267     -2.11063217814717     -0.16926997871272
  C   2.62402382172049     -0.81011102852590     -0.01036582219809
  C   3.89289198461127     -0.21552695528316      0.14313205143403
  N   5.10767758386518     -0.79171736163701      0.16603982126445
  N   3.79193463219472      1.13968453538552      0.33459181959169
  C   2.50159648178166      1.43456131059373      0.28098153230910
  C   1.67656409085786      0.27136402440869      0.06475033971381
  C   -1.46811824293396     -1.80687678264824     -0.06151169594488
  C   -2.71557076292721     -1.21068849859659      0.08286124197208
  N   -3.78599191572929     -2.03151976565125      0.23436546764982
  H   -2.43307196976232      2.18077068403963     -0.15187479387667
  H   0.48723719541669     -3.37116558270425     -0.30028741041822
  H   2.87659320085677     -2.94243824340110     -0.23649693450808
  H   5.90451187129684     -0.17938997921792      0.14383584216614
  H   5.23662513921555     -1.72527461297508     -0.17674358998381
  H   2.18533388450052      2.45280245831232      0.41606282379631
  H   -1.52241094107687     -2.88944003263937     -0.08799668926236
  H   -3.68349930102754     -3.01863544001228      0.09357858046579
  H   -4.71956838078476     -1.66127353736202      0.19609640411809
