29
Coordinates from ORCA-job ./opt_b97-3c_parallel
  N   2.73402196120886      3.71907117085448     -0.14860191612212
  C   2.02094504471942      2.80333422880112     -0.10153937785578
  C   1.16401839773491      1.67831563458656     -0.03752057297932
  C   -0.21431417177504      1.86272317359329     -0.00067969239747
  C   -1.10950149629458      0.78677792665615      0.01784748365398
  C   -2.51141346801375      1.08885702626336      0.08257274161969
  N   -2.89886041996647      2.25782550614437      0.63111590236117
  N   -3.51238661649068      0.40118263827765     -0.47405500565119
  C   -3.48218358142435     -0.87925453458979     -0.75765096364579
  N   -2.70941551634071     -1.84644958409822     -0.30047333255770
  C   -1.50159622466301     -1.68428242646109      0.22842412378907
  N   -1.05648096193533     -2.73090025992448      0.93605958650737
  C   -0.60030746394495     -0.56487678567761      0.03180509352329
  C   0.78535456006492     -0.77074885966797      0.00489370132524
  C   1.60068957660633     -1.91929852366863     -0.03300151280795
  C   2.94097705277473     -1.49622731527960     -0.10763853417824
  N   4.03385477315764     -2.32520373864527     -0.13589819605712
  C   3.00224956691519     -0.08283346168059     -0.08663403694549
  C   1.70124231634124      0.38385606517797     -0.03474327934002
  H   -0.59317968630345      2.87035345280469     -0.07315260932002
  H   -2.29007196525156      2.78424185162419      1.22742088814349
  H   -3.87495055457290      2.49148842031295      0.59838593538496
  H   -4.29895414338603     -1.22035050799378     -1.38702850044090
  H   -1.65949067289621     -3.52568005639735      1.05054342728848
  H   -0.16958361611463     -2.69522218495599      1.40658884816067
  H   1.28556049571348     -2.94640349513679     -0.11690012020064
  H   3.87292441319825     -3.26282759891585     -0.46183456350374
  H   4.87906721913285     -1.92567298627612     -0.50630394356060
  H   3.89718815810586      0.51824637427228     -0.11276225739339
