30
Coordinates from ORCA-job ./opt_b97-3c_parallel
  N   5.37584492235353      2.40222993508054     -0.30568826216709
  C   4.37327655814875      1.82517211405919     -0.21293623714792
  C   3.14791816766058      1.11371920460764     -0.10388712525610
  C   3.20518794938587     -0.26633033992838     -0.30933017439445
  C   2.20237619136703     -1.21007828520843     -0.18988687519195
  C   2.68042440107382     -2.53857482498247     -0.38540090730416
  N   3.08857663797178     -3.61397558259590     -0.54103231882422
  C   0.79066456021411     -1.07745893793170      0.05703217513345
  C   0.08267642915393     -2.25314031747226      0.22599585197969
  C   -1.31956386590270     -2.32646984344811      0.26875540979401
  N   -1.91871591028370     -3.51087573436573      0.46625272167751
  C   -2.04352982879124     -1.14403678873514      0.05218138789585
  C   -3.39951463527623     -0.91091169302140     -0.10314372607648
  C   -3.56985289866636      0.48209292144289     -0.34407310414855
  C   -4.80409550126584      1.10762897046655     -0.59742755051682
  N   -5.83206167463590      1.60556401256676     -0.80668081296645
  C   -2.32676367207763      1.10886776535561     -0.31083943656313
  C   -1.33674262382057      0.11880260856539     -0.06219114897618
  C   0.05669403578634      0.20802366671770      0.06785946318778
  C   0.68503814913126      1.46425867400907      0.32028769773528
  C   -0.12495096773235      2.55007574982579      0.76406056505895
  N   -0.68278999541684      3.48428991030189      1.16798791551870
  C   2.02210363861301      1.85144979418938      0.23713363944447
  H   4.18206288938897     -0.65918093662966     -0.55335386355017
  H   0.62994359242592     -3.18183086299418      0.28536640110286
  H   -2.91729469216865     -3.59722604643945      0.47382458367581
  H   -1.38290121787076     -4.35213107680846      0.57525704155945
  H   -4.20629103868250     -1.62549174536227     -0.07422902694360
  H   -2.17584033008649      2.15511402263328     -0.49476817410624
  H   2.20384932190291      2.89487573650193      0.45237501666967
