30
Coordinates from ORCA-job ./opt_b97-3c_parallel
  N   5.05353286724183     -0.08739259025715      0.13796788237112
  C   3.91393925086389     -0.32395202931596      0.09251353434632
  C   2.58097406152964     -0.73128021631841      0.04832660791742
  C   2.15555516770047     -2.11560789886535      0.03171859907297
  N   2.99611081214494     -3.16571995626139      0.00631524926408
  N   0.83015741671250     -2.25369417225202      0.00584329795089
  C   0.33319776919529     -0.98272330322701      0.00341569478831
  C   1.39630118136168      0.00019334933617      0.03102789330487
  C   1.08259845112507      1.36801923317365     -0.03027764449561
  C   2.08974137043413      2.35165538388701     -0.12825992129201
  N   2.85410044712676      3.22245229095661     -0.22063016780274
  C   -0.26060769162643      1.78447973926488     -0.04639739412312
  N   -0.54404681057612      3.13075559235656     -0.09761710833787
  C   -1.32250504359997      0.82310454124325      0.03505772828476
  C   -2.60028240616977      1.32126514661618      0.29229185233594
  N   -3.82508013210666      0.80937074040571      0.28524677536939
  C   -4.15741134006965     -0.45424385911293      0.03323052295419
  N   -5.48287575330226     -0.65075418904808     -0.10048790863111
  C   -3.32177454606099     -1.60331506870394     -0.06504880491327
  C   -1.96297846230629     -1.63381179262975     -0.06927984609963
  C   -1.00185025805043     -0.59906559591567     -0.01973013068661
  H   2.61275169403428     -4.07814971614714      0.17469032608843
  H   3.96639056912245     -3.02217799762297      0.22206510456029
  H   -1.31123875673828      3.40989359199311     -0.68233182357617
  H   0.25493614720392      3.73530889659457     -0.20526276162589
  H   -2.62127176577152      2.36876952151451      0.57225425416072
  H   -5.87495657413057     -1.55393312540980     -0.28727331453210
  H   -6.09493229452552      0.13759421019554      0.01329890127137
  H   -3.83005500374799     -2.55757432046003     -0.13784388466015
  H   -1.51380396531299     -2.61757232758951     -0.12704175466380
