32
Coordinates from ORCA-job ./opt_b97-3c_parallel
  N   6.15571122043428     -0.73278100567101      0.05271941727516
  C   5.03853175385381     -0.40591082505436      0.02675430018087
  C   3.66760286597203     -0.07413793635465      0.00181528626187
  C   3.34226026836338      1.28643108233326      0.02852924685005
  C   2.13089140308229      1.92555156393022      0.02785954013551
  C   0.80359532291323      1.44265281426737      0.00791854668462
  C   -0.20531076282350      2.40188796414105     -0.00606137225159
  C   -1.57127201513724      2.09725177064113     -0.01346848425726
  N   -2.50689485442200      3.09251667294924     -0.05464276916056
  C   -1.94533888927855      0.75283128425963      0.05300257503612
  C   -3.20936145708073      0.14617067696991      0.06867797729724
  N   -4.43788980996906      0.78835291043708      0.12866842956127
  C   -3.00234311657488     -1.26044851648454     -0.02292616147087
  C   -4.04268291714378     -2.19720530725969     -0.01740332505029
  N   -4.95172929005361     -2.92443524480919     -0.00373613702527
  C   -1.62070065296181     -1.51000187194643     -0.06787367928032
  C   -0.93990552021187     -0.28190960006948     -0.00697618136159
  C   0.44816630080535      0.01589754291053     -0.00927077221171
  C   1.35175157875663     -1.04309421423776     -0.04464847565229
  C   2.74524575078557     -1.15177780195848     -0.04686487916374
  N   3.25647759124153     -2.41465279948093     -0.13584989728094
  H   4.20168450900317      1.94401261615349      0.05903296589768
  H   2.20421869472624      3.00603564757704      0.04835656545435
  H   0.08704088043042      3.44424225672362     -0.02821119835228
  H   -2.18661798074141      4.00060322648315     -0.34518129663193
  H   -3.40815349826987      2.83832372225766     -0.42922576410325
  H   -4.51945227498147      1.44070663551313      0.89568990195372
  H   -5.21716532128209      0.14583369871133      0.14376429858389
  H   -1.19655334614262     -2.49817587180313     -0.12699401730139
  H   0.86678915308062     -2.01069877666424     -0.07751621930654
  H   2.65568463667948     -3.19502575767188      0.05332792896964
  H   4.23489217944645     -2.56455898869309      0.03973948681980
