33
Coordinates from ORCA-job ./opt_b97-3c_parallel
  N   -2.80492911421399     -3.38552112611014     -0.03346669506926
  C   -2.36846104353117     -2.30582173366228     -0.02558943700893
  C   -2.02691479582488     -0.93204509214081     -0.02687737597948
  C   -3.14033305563871     -0.04424522601099     -0.14926302722138
  N   -4.35568774790280     -0.62196362804867     -0.39653818935525
  C   -3.12916480282920      1.34026578987566     -0.05957016349768
  C   -2.04998126785139      2.19695180678707      0.16457840871956
  N   -2.36959646342081      3.54188980839415      0.29671889804780
  C   -0.69661767255532      1.88108987753834      0.20001795093788
  C   -0.01775867946235      0.66502301399503      0.03509978514949
  C   -0.63400543721507     -0.66821515084284      0.05575268710228
  N   0.10382557840307     -1.78761355779422      0.12761493398954
  C   1.43788010091994     -1.76440845856928      0.14143098661250
  N   2.05894438759419     -2.98640634945519      0.23429043515637
  C   2.13418515444713     -0.56650537190988      0.07534870751543
  C   3.48995002836763     -0.18306234951710      0.03449447106336
  N   4.58980796214519     -0.99427565137695      0.14298705126342
  N   3.62677379557392      1.14400365017032     -0.18332637931467
  C   2.37788464488241      1.64999870426249     -0.24805061809118
  N   2.19645629722245      2.98688858053660     -0.46512615846793
  C   1.38117328974811      0.64605003997649     -0.05656251148578
  H   -5.17915993879187     -0.07591174933722     -0.22477096356534
  H   -4.45707756629094     -1.61394561588903     -0.26341848342540
  H   -4.09333497416776      1.82203643851910     -0.17504181276495
  H   -3.28729199836457      3.73793781693215      0.65851098887003
  H   -1.66401731184892      4.11484191935217      0.72724001516201
  H   -0.05485653144953      2.72154170631409      0.42977381952985
  H   1.42539639464418     -3.75453036628026      0.07434964589839
  H   2.92836264786645     -3.07356507825164     -0.26666075353518
  H   5.44800295078297     -0.47721652840815      0.25517473087338
  H   4.50340997078201     -1.74507783782077      0.80989060112525
  H   1.35403575621872      3.23892343875998     -0.95767486266538
  H   3.02110576516111      3.44318521611268     -0.82356825806794
