27
Coordinates from ORCA-job ./opt_b97-3c_parallel
  N   4.06095659562183     -1.00476090839514     -0.03052354779001
  C   2.88300242759922     -0.31650270010480     -0.00195052743715
  N   2.87833625088820      1.02947660056941     -0.10084805398920
  C   1.58609456208814      1.41782606284898     -0.10710950068991
  N   1.29220952107090      2.74760844493569     -0.20018198978906
  C   0.69001001004014      0.31137747946865     -0.00070570875583
  C   1.56921228490094     -0.84098425470026      0.03301379663721
  C   1.02916781967953     -2.10501174091746      0.04729298750189
  C   -0.34924341594869     -2.24779909814920      0.00907583372655
  C   -1.24251355154444     -1.15874120483467     -0.00949045451279
  C   -2.61984440122672     -1.47801992339840     -0.12858698854369
  C   -3.75551306462367     -0.69783149598848     -0.16706003757733
  C   -3.89309443044828      0.67524172977009     -0.01367526643713
  C   -2.85680877158136      1.56909380579481      0.23479600327038
  C   -1.49715181729143      1.35948256601262      0.28233321573831
  C   -0.70294266379180      0.19372666650411      0.06960156534771
  H   4.06777754667494     -1.91131493475011      0.40284369736140
  H   4.87302831202710     -0.44690879494023      0.17512491705144
  H   0.41964708349800      2.98081206446771     -0.64646001785681
  H   2.07070812181987      3.30264910400258     -0.52016221354749
  H   1.65467643436390     -2.99009829534774      0.06286833548571
  H   -0.77082618839460     -3.24353995022894     -0.00926635421837
  H   -2.80471103468959     -2.54040210915603     -0.23854181052249
  H   -4.67838703484202     -1.24812855985583     -0.31609737218034
  H   -4.89639543068594      1.07910603477632     -0.04662707918084
  H   -3.16118228904431      2.59316064737242      0.42526086830624
  H   -0.93064606975998      2.23038725214397      0.57852981870153
