33
Coordinates from ORCA-job ./opt_b97-3c_parallel
  N   4.86191613167815      2.60687104803764     -0.82578575345915
  C   3.94134360212269      1.94042720653366     -0.57808689150504
  C   2.86886212945395      1.07620985125151     -0.25365368564529
  C   1.61002933540005      1.67281618031139     -0.16970782023568
  C   0.33068880519944      1.19539524311587      0.06050032841859
  C   -0.70157103273981      2.17726768644528      0.19513834092381
  N   -0.38741723208195      3.49848821642246      0.36370559292416
  C   -2.05991516565679      1.80732727227489      0.10264570356945
  C   -3.05469948779679      2.80047837902769      0.22996496852288
  N   -3.80170887550763      3.68183895958550      0.34888744519467
  C   -2.40978961901687      0.46732381873233     -0.07032713253564
  N   -3.64710385512023     -0.02837170830372     -0.16945747355497
  C   -3.48149033268797     -1.37067326287473     -0.23359388632671
  N   -4.52639077210151     -2.18951420225786     -0.35203165734471
  C   -2.10623489568747     -1.76903898042151     -0.16702667333831
  C   -1.67722200486034     -3.09078875477212     -0.24243919665789
  N   -1.37287232362523     -4.21465006766781     -0.30812418914118
  C   -1.38074628034395     -0.56560579829508     -0.06245031032323
  C   -0.02233243853183     -0.22838101134705      0.05440761531013
  C   0.89912738216441     -1.26458894928545      0.20036894841686
  C   2.28622975366493     -1.31637986833657      0.26943718923390
  C   2.85443090167728     -2.58704366635803      0.53336502774870
  N   3.39770136420280     -3.59224179301495      0.74705103575551
  C   3.22902152486803     -0.27227499498440      0.02301389258879
  N   4.52790243827695     -0.58769625140350      0.03249931616289
  H   1.65651138679048      2.73622155678067     -0.36394755366055
  H   -1.16257792518509      4.13267471161579      0.46955347956386
  H   0.38918774660974      3.72522116026697      0.95777953946586
  H   -4.40729357592219     -3.18461127166405     -0.40428116725658
  H   -5.45035249180186     -1.80132135522021     -0.40815755474744
  H   0.44864555956524     -2.24237996932496      0.29762678698229
  H   4.82933435447082     -1.53388886604992      0.19640308672562
  H   5.23075665412189      0.10639473007781     -0.15895461847643
