25
Coordinates from ORCA-job ./opt_b97-3c_parallel
  N   3.58810575509732     -1.08826194051129     -1.21472263789936
  C   2.77333193450024     -0.43582164617360     -0.70631712358284
  C   1.81715711097871      0.48612768776798     -0.19475316794527
  C   2.30059226262490      1.80609622293132     -0.20059385826218
  C   1.66192038101538      2.96354801259016      0.16930795170865
  C   0.32349436733364      3.08127938964309      0.55371170152830
  N   -0.65706504950439      2.22109256928598      0.45503411692477
  C   -0.65392299178263      0.91740430668096      0.14198915178467
  C   0.52547298786346      0.00881262591670      0.14104349986866
  C   0.28700316398442     -1.37535490904697      0.30891762687989
  C   1.31339958010136     -2.27372693241915      0.68641136790209
  N   2.07990240845437     -3.05382815711843      1.07736885080436
  C   -1.00343506945808     -1.92267923336802      0.16595595420088
  C   -2.07132966885217     -1.11142038470123     -0.11403014152204
  C   -3.44997721648879     -1.37327524213283     -0.27268930204854
  C   -4.10952754086619     -0.14452991125227     -0.36326231946888
  C   -3.17748510300277      0.89697644955204     -0.24397604623456
  C   -1.89766328345011      0.32882711315543     -0.10768640662515
  H   3.33249627500744      1.90455079061782     -0.51005383693698
  H   2.24975076839740      3.87232584897179      0.17921647242267
  H   0.02097929366589      4.04769927416553      0.94897460226071
  H   -1.12457890179301     -2.99108639902806      0.28278944378309
  H   -3.90694989828786     -2.34987055187449     -0.29966215164248
  H   -5.17233364747364     -0.01441005591721     -0.49500060715575
  H   -3.39306097086600      1.95238345866296     -0.25416393724456
