30
Coordinates from ORCA-job ./opt_b97-3c_parallel
  N   -5.29324555431232      2.61349547343638     -0.00516273093572
  C   -4.34494635942316      1.94435998286994     -0.00545408350616
  C   -3.17995996459620      1.12858315717404     -0.00561007493086
  C   -3.38449711622699     -0.24930181378972     -0.00367483426983
  C   -2.46000047357442     -1.27397822771601     -0.00398887909931
  C   -3.02678138539775     -2.57542934789023     -0.00296058754339
  N   -3.44946857656434     -3.65789784849015     -0.00202797638765
  C   -1.01755100893580     -1.23468404974918     -0.00441763926810
  N   -0.41359665969134     -2.41577222098981     -0.00584277878628
  C   -0.16676539550013     -0.05912273770424     -0.00278946976035
  C   -0.63882323911409      1.32147813322061     -0.00743882133906
  C   0.31395498203073      2.37996845194003     -0.01005745407276
  C   1.66735445307204      2.18885074650349     -0.00862252778829
  C   2.14605101927255      0.88353722409817     -0.00381657315554
  C   3.43243377287448      0.33327745637525      0.00034433514977
  C   4.66670150337833      0.98164549805229      0.01300042661669
  N   5.71869863312779      1.48066597018083      0.02839908686854
  C   3.23588264453324     -1.08388422234764      0.00842928417533
  N   4.20897391364104     -2.00919251234935     -0.02031252920493
  N   1.93456892233499     -1.40998949746431      0.00876447646397
  C   1.22753997216733     -0.23440723232811      0.00013359293916
  C   -1.95469072617511      1.78579175654436     -0.00830247861550
  H   -4.41809951050197     -0.56701209939412     -0.00231475941755
  H   0.62134654711919     -2.43908552690106     -0.00433163315166
  H   -0.95421609223053     -3.26555928513419     -0.00897456063126
  H   -0.06935916565856      3.38987711291303     -0.01346101402902
  H   2.34723267176085      3.02974361841141     -0.01122420870104
  H   5.15853983889819     -1.73036650702220      0.14897517635689
  H   3.96977708418498     -2.96714509554548      0.15928796587582
  H   -2.04021577989308      2.86383157179592     -0.01108796055192
