23
Coordinates from ORCA-job ./opt_b97-3c_parallel
  N   1.74018880081925     -2.46931310430482     -0.08740481368320
  C   2.03038956081948     -1.16599818979460     -0.07921336719551
  C   3.30918681750949     -0.53763095954029     -0.06932046789444
  C   3.12888094011775      0.83220317128362     -0.01900945730105
  C   1.73436320488191      1.11430354175764     -0.00851897792709
  C   0.98274358064261      2.24860494624664      0.14680367568308
  N   -0.36045985505756      2.23516959569367      0.11127795548054
  C   -1.04184411150016      1.09654647751341     -0.00306098305304
  N   -2.36707999555405      1.28501860691333     -0.22804846893849
  C   -3.31264999203740      0.37930161688055     -0.21037578297424
  C   -3.28896988307065     -0.98981967444510      0.07539695616882
  C   -2.15686365801190     -1.77362378297667      0.21859750454419
  N   -0.87258138192665     -1.46933248210260      0.14134855084889
  C   -0.34286773091276     -0.22166036303321      0.01949898895454
  C   1.03700468635799     -0.13879713916849     -0.06927128198638
  H   2.45161796906115     -3.16746630506909      0.03115132684780
  H   0.75659621385032     -2.69626146068578      0.03275720820378
  H   4.25490880780590     -1.05689811175976     -0.08441173646527
  H   3.91655970855538      1.56845473724729      0.02077703911805
  H   1.44001088956122      3.22183416657572      0.29055276701914
  H   -4.29486227203336      0.78282934084075     -0.45203402573285
  H   -4.24405481107137     -1.49799143586574      0.11400422951589
  H   -2.33449451360651     -2.83322018340649      0.38877131516711
