31
Coordinates from ORCA-job ./opt_b97-3c_parallel
  N   -5.72304913034713     -0.34554093131716      0.06043406664458
  C   -4.56602443394408     -0.23236587177252     -0.00876614954799
  C   -3.17402749657994     -0.01913496445689     -0.05751423085370
  C   -2.35830014189753     -1.07726021684084     -0.42170900120048
  C   -0.97224174293393     -1.18395227134453     -0.45375814470733
  C   -0.50315835348289     -2.41334771042916     -0.95340237850902
  N   -0.09264477022389     -3.43258767537218     -1.34429928536658
  C   0.01500194736292     -0.18048799760453     -0.14397245718574
  C   -0.32191479662939      1.25437226319840     -0.20437103733859
  N   -1.49487882863345      1.79294606254576      0.12871309274946
  C   -2.68750100059306      1.27944610682370      0.32825505077728
  N   -3.56038677487246      2.10912437057857      0.93611341444772
  N   0.61198569060249      2.15697577353944     -0.53573932808486
  C   1.90390119644742      1.84586429329347     -0.49901885309802
  N   2.79430167661349      2.82791707644276     -0.87436803001441
  C   2.32113477393740      0.60849916769235     -0.02252731038555
  C   3.55188227784534      0.06643973889429      0.41079559259251
  N   4.74374249903260      0.69686559425128      0.47113479243229
  N   3.43836926396600     -1.23021680788342      0.77215321888294
  C   2.15228458911847     -1.57399431760471      0.57988640135446
  N   1.73580574640630     -2.78848888458885      0.95001043104703
  C   1.35694670253327     -0.43913408815613      0.09765248296475
  H   -2.88624087627791     -1.97502367856578     -0.71492590437088
  H   -4.52590988004905      1.86145581610975      1.05840117282772
  H   -3.27608938911923      3.06167514506651      1.07502880636613
  H   2.33589179621091      3.62536266960457     -1.28822165216912
  H   3.58937437339663      2.51168655270967     -1.40628051271158
  H   4.73761274736941      1.70045020821792      0.54350512074946
  H   5.46480782299973      0.22416011860207      0.99034427902551
  H   0.94505399636706     -3.21099857728853      0.48520593722558
  H   2.46995519592639     -3.42219766210956      1.22244195443741
