28
Coordinates from ORCA-job ./opt_b97-3c_parallel
  N   3.91933323555810      2.04324427160806     -0.66588729962108
  C   2.85725216080105      1.41445898553107     -0.11813362396588
  N   1.80123617093067      2.22786602150109      0.09351473273653
  C   0.57936005213285      1.77578937982562      0.24652638233560
  C   0.01648336943744      0.49156147608898      0.11422434486491
  C   0.73967729292491     -0.76245416576246      0.00687316739845
  C   0.02138256587231     -1.94785900212380     -0.24989737614198
  N   0.69604655993015     -3.19015785186515     -0.38740020026657
  C   -1.37385623717812     -1.96210681579247     -0.34418734631696
  C   -2.09385113163171     -0.80328542660364     -0.14507690456849
  N   -3.42084244409120     -0.56568204316828     -0.16991307690834
  C   -3.47483891412995      0.77087278950720      0.04101724321480
  N   -4.65499342735101      1.43654797007892      0.05549376309133
  N   -2.29714142089033      1.43369598863377      0.19539883318692
  C   -1.39149097795466      0.44489587539683      0.08926671093808
  C   2.13370791909412     -0.79192071004649      0.39530116280343
  N   2.60566449968236     -1.88880207870268      1.01547614754182
  N   3.05595144152354      0.14605795504699      0.21025330989341
  H   3.89159617306247      3.04463091649509     -0.72308674027057
  H   4.80557269649973      1.57374439953541     -0.68073970542876
  H   -0.15389552990402      2.54934314525863      0.44812909680488
  H   0.04865651328923     -3.93007449228655     -0.61181333036135
  H   1.41246488995019     -3.16474562809636     -1.09996702530779
  H   -1.88770171876788     -2.88689729059678     -0.57906879747446
  H   -4.64592682805502      2.34816409992817      0.47628235462911
  H   -5.47595916352424      0.87912073771169      0.20913373869098
  H   2.04884778374980     -2.73275006867854      1.01738420153592
  H   3.59972792483906     -1.94759050362438      1.14753007896608
