29
Coordinates from ORCA-job ./opt_b97-3c_parallel
  N   2.16907511325268      3.41742705994246     -0.02309436729828
  C   1.79417608178339      2.31616989498082     -0.01407522807372
  C   1.52591033077879      0.92466512658463     -0.02423854841883
  C   2.68696860690237      0.09141356251826     -0.13584513626588
  N   3.86967511534060      0.71053136699897     -0.36715594355663
  N   2.80137608208320     -1.22233852199989     -0.01785659935258
  C   1.81810668438459     -2.10960211719248      0.07887398576748
  N   2.27299363884693     -3.39879722696613      0.19525286940370
  C   0.42747684310004     -1.94685949433930      0.01200961090847
  C   -0.35925482081093     -0.80842292247829     -0.02620266177026
  C   0.16031933661539      0.57761996789543      0.05505427058899
  N   -0.64902939608176      1.63021582536980      0.17116792374803
  C   -1.98213880365677      1.48771448268847      0.16388531788391
  N   -2.67443618743407      2.63035206911160      0.33787374821747
  C   -2.60133643906495      0.24014549872466     -0.00082612016063
  C   -3.93576507205093     -0.17809315078146     -0.07352845876284
  C   -3.93535340360492     -1.57822092976635     -0.22297006468135
  C   -2.62075910651464     -2.03643774619832     -0.23552533649663
  C   -1.76139036836172     -0.91834909057820     -0.10026421881465
  H   3.95602971394654      1.70988330190043     -0.32029613309957
  H   4.69633679833262      0.14756623914630     -0.29078015021436
  H   3.24851949818872     -3.49210898535894      0.41720324719864
  H   1.66365143177025     -4.09304610707089      0.58734619539889
  H   -0.12565747786304     -2.87715074676876      0.00809851574753
  H   -3.66421308267440      2.65721227366779      0.18357069455387
  H   -2.15954880614445      3.49285420842534      0.30746466841174
  H   -4.81678575486960      0.44431272457993     -0.02213198082124
  H   -4.81540409626595     -2.19553349081131     -0.31756794522181
  H   -2.32352401462796     -3.06659944912456     -0.35484382251948
