30
Coordinates from ORCA-job ./opt_b97-3c_parallel
  N   -5.30427986624420     -0.58155391979160      0.15717780168279
  C   -4.15418851899300     -0.39345766311063      0.08585065753619
  C   -2.77359949291968     -0.16394224796756      0.00859344822443
  C   -1.91880684259147     -1.29820373019798      0.05192169080868
  N   -2.53096430755288     -2.52432902439168      0.09519919899379
  C   -0.53126895418550     -1.30184798817803      0.00688624855905
  C   0.41591163570742     -0.27384295975358     -0.03990736542918
  C   0.07589321862605      1.16146050044685      0.03220266994074
  C   1.11962135778698      2.09388327801314      0.18970081236988
  C   2.45345199612317      1.73576349615886      0.19943018421961
  C   2.80658624783849      0.40877421762408      0.04255098300798
  C   4.06839332002940     -0.24657343929391     -0.02682049565571
  N   5.29036942587966      0.33731274632317      0.11393835234974
  C   3.82908801387602     -1.63258039643830     -0.20335664004078
  C   2.46051414110003     -1.83780114743167     -0.24461562376958
  C   1.78675055112953     -0.59103231410161     -0.09400877907919
  N   -1.13695200545807      1.71429794946207     -0.06494808280461
  C   -2.34622210543620      1.18574722181825     -0.14651557758088
  N   -3.31027313926712      2.11457378991773     -0.39619426424395
  H   -3.50408584151632     -2.56968100894340      0.34423414252161
  H   -1.98128122371122     -3.30742459116086      0.39725758332605
  H   -0.10396560658389     -2.29664618835235      0.03232118904466
  H   0.82700719852635      3.13016599220224      0.26621697609800
  H   3.20310685905631      2.51104484604756      0.31656832245652
  H   5.35838746244890      1.32768731910882     -0.04147465913733
  H   6.09028900962954     -0.18024532802013     -0.20528350161558
  H   4.59083646134209     -2.39103632080616     -0.29827260184219
  H   1.99652362190508     -2.79922463073066     -0.40203868786667
  H   -4.28424378204088      1.88723678894844     -0.30545853541980
  H   -3.03482478480432      3.07265264759881     -0.27998675345447
