33
Coordinates from ORCA-job ./opt_b97-3c_parallel
  N   4.32608540987086     -3.18599506123802      0.48958616723383
  C   3.55134382597214     -2.32810047467047      0.36610321851254
  C   2.56704748407540     -1.32752439858335      0.18140249756808
  C   2.94839456658111     -0.02560309193372      0.47128817407221
  C   2.33083277014014      1.15485009024968      0.09995777735348
  C   3.10027478338383      2.33999833149137      0.18127238491782
  N   3.70892714845224      3.32917346054066      0.20369236173845
  C   1.04581930409246      1.26163247710355     -0.50121620984946
  N   0.80077752890027      2.31566422009320     -1.26734001981515
  C   -0.05842811181222      0.35314132997012     -0.23016590841419
  C   0.06496974301914     -1.08015030698551     -0.21658608527726
  C   1.33674547404697     -1.76274649336511     -0.39664803640818
  N   1.35768453396939     -2.92355356851482     -1.05212668283883
  C   -1.10807433639267     -1.87909431161553     -0.07562858727731
  N   -1.02902840689675     -3.28727649398825     -0.02877260021277
  C   -2.37398957512722     -1.28706690432549      0.00204798929606
  C   -3.51450402701562     -2.11078154864044      0.15234960731537
  N   -4.39053598638975     -2.86295870665393      0.27103599363351
  C   -2.50228372830222      0.10105167313017      0.01504956348943
  N   -3.63803202739523      0.80463214420923      0.18478460532557
  C   -3.24510265666777      2.08482185339038      0.26104362437127
  C   -1.85188751746940      2.25560134012172      0.12226848396775
  C   -1.18296975225542      3.46917799962217      0.28994563337477
  N   -0.61351603044277      4.47926843934663      0.40636717183589
  C   -1.32837010518223      0.93170694053966     -0.06225289775324
  H   3.92862544143343      0.08217935773881      0.91389520811498
  H   -0.12547981098672      2.47869307124835     -1.62233554352150
  H   1.43112077390314      3.10324332624789     -1.28745260506503
  H   2.20306117740087     -3.47208384554314     -1.07414629231058
  H   0.47718672198280     -3.39533428034516     -1.23581959032479
  H   -0.45321361086135     -3.62305338788623      0.73212771798994
  H   -1.94340797193352     -3.70998856801297      0.05411520555286
  H   -3.95522738049320      2.87834133355750      0.43814247200396
