27
Coordinates from ORCA-job ./opt_b97-3c_parallel
  N   5.82558337600512      0.96198678749930      0.85949123624702
  C   4.68765661182832      0.92683491544069      0.63362200825199
  C   3.30718445116743      0.88995934406711      0.36079247125679
  C   2.51091110152863      1.99844548794337      0.03035285757771
  C   1.19147231872670      1.54019319678427     -0.11147385812956
  C   0.03796454398189      2.19796265668096     -0.44993433628166
  C   -1.18690246940370      1.50936663250877     -0.43868240250096
  C   -2.33463583864269      2.24274104276736     -0.82689529411049
  N   -3.21073409346786      2.88450685066759     -1.23621891758041
  C   -1.26171815176773      0.14048102001992     -0.10792357473791
  C   -2.49584817995250     -0.40822056089356      0.35208955128030
  C   -3.46313324746669      0.47115128263597      0.91060567915024
  N   -4.26366002793752      1.10080051930915      1.46784434898230
  C   -2.87414622766495     -1.75193111757692      0.44422770568049
  N   -2.30657565352478     -2.82695706136464     -0.06837708373065
  C   -1.06902243886684     -2.91302869752556     -0.50148050299821
  C   0.01255439944728     -2.02416117777401     -0.34783016230918
  C   1.24943845639468     -2.64532264134725     -0.66275069737513
  N   2.20917406746404     -3.23574281862442     -0.94286401507671
  C   -0.00808705369327     -0.63374354808863     -0.05366317441993
  C   1.17932553145079      0.10069598334506      0.10913792769256
  C   2.50412358380646     -0.27218582451429      0.39593383876310
  H   2.85559979433142      3.01235043863333     -0.08571821098269
  H   0.04217110694941      3.25048596708816     -0.69652158149140
  H   -3.81848474107945     -1.93923162330729      0.94246089043912
  H   -0.82693684670764     -3.85743524494402     -0.97648751241515
  H   2.87565010049455     -1.24841382542923      0.64615227521893
