30
Coordinates from ORCA-job ./opt_b97-3c_parallel
  N   -5.28134770509716     -0.66613625353612      0.03870029632194
  C   -4.14518081431431     -0.91200076773555      0.00057597102571
  C   -2.78675908663964     -1.24575145560092     -0.05184809032661
  C   -2.24281980156277     -2.55468445646019     -0.13597572658166
  N   -0.90667769387148     -2.57753691558360     -0.16126414374861
  C   -0.52323786928884     -1.27257759548757     -0.11239209378395
  C   -1.66581158882688     -0.39814841538823     -0.03425556147737
  C   -1.44891807415552      0.97320982526168      0.11596652158563
  C   -2.51778054142790      1.87330525238900      0.33779483938138
  N   -3.33236339520410      2.67950537773563      0.52765660197839
  C   -0.14121012271931      1.49661110313333      0.08123597649067
  N   0.02100959905158      2.89388079138909      0.21291248061596
  C   0.98551391474729      0.65374499937990     -0.09863111467479
  C   2.28487955595758      1.21768028143997     -0.43085231153955
  N   2.31350769801114      2.42660961362602     -1.02605213469672
  C   3.52929618832155      0.63276291373065     -0.18761245124428
  C   3.83443485643446     -0.66077446010027      0.21875229858591
  N   5.07234527723158     -0.93357797052158      0.68263592287068
  N   3.06990290950896     -1.77373803383688      0.11367021008809
  C   1.79156326735598     -1.78700169672999     -0.10437467220991
  C   0.78883192853872     -0.77029507803395     -0.10532831122725
  H   -2.81709824280923     -3.46806391623427     -0.18065716362873
  H   -0.86408664072160      3.37096351932594      0.31510350460660
  H   0.61149545561514      3.14080815236661      0.99535690440456
  H   1.47503401731701      2.99727787222458     -1.01328928531983
  H   3.19471082896872      2.87411290098730     -1.20006245158710
  H   4.38165372741241      1.28616548458169     -0.34052091289842
  H   5.76321050193072     -0.22174428453931      0.82288600916492
  H   5.32408467893346     -1.89588734290195      0.81851299841326
  H   1.37622145880246     -2.77845885268022     -0.24585673128779
