22
Coordinates from ORCA-job ./opt_b97-3c_parallel
  N   5.09328544542964      0.90905455481658     -0.06647300710855
  C   4.00713974851801      0.50141957269401     -0.03998015526142
  C   2.68004248058067     -0.00792389906761     -0.00838479655558
  C   2.54701823692061     -1.40165870289850     -0.11672121321552
  N   1.48338945484989     -2.15994586918097      0.07138869449803
  C   0.22768832384904     -1.78712786086593      0.21721602010896
  C   -0.42023631001669     -0.55002968100650      0.02662254095338
  C   0.26602482498880      0.74394924624185      0.03154955635641
  C   -0.52252546514806      1.92092474967168      0.03622516010654
  N   -1.84391390340542      1.97445682253755     -0.00098612137040
  C   -2.48921064186308      0.81211783241441     -0.04305447157970
  N   -3.82184181129057      0.67475801922324     -0.05783038923754
  C   -4.02999973535559     -0.66630574743773     -0.08286462873327
  C   -2.85669363578806     -1.43096621380721     -0.07320202126944
  C   -1.81174182440903     -0.50000342437305     -0.04207596660856
  C   1.64147730332323      0.92591550124457      0.06461454261490
  H   3.45399440198776     -1.95159561277979     -0.34453157082552
  H   -0.43188185292609     -2.60428627605422      0.49351244401316
  H   -0.00716827579738      2.87485974203359      0.06168250556496
  H   -5.03897780805676     -1.05103734728058     -0.11725574379623
  H   -2.79707041122397     -2.50605695498923     -0.12115669333788
  H   1.96418426463315      1.95932763566396      0.10817200928321
