25
Coordinates from ORCA-job ./opt_b97-3c_parallel
  N   -3.62129011577956      2.34690351572296      0.00515949301481
  C   -2.80499946698730      1.51746420212413      0.00260113423980
  C   -1.97708663543064      0.37236567228508     -0.00001837199168
  C   -2.66550704669566     -0.88269541700237      0.00285440884413
  N   -4.00752087944889     -0.85377070937957      0.01081414415612
  N   -2.17324133307541     -2.12844030480569     -0.00202225057267
  C   -0.89354295240671     -2.46497156785571     -0.00771795919088
  N   0.25266422439745     -1.81643671383680     -0.00740221876400
  C   0.42555668134964     -0.46529647858178     -0.00378522783509
  C   -0.58206753762724      0.60116474953642     -0.00257699564619
  N   -0.23804389617404      1.90747580604689     -0.00258087315318
  C   1.03615596418619      2.28897840897468     -0.00206474047575
  C   2.07095828732155      1.37480468320168     -0.00101132780744
  C   3.48807356306020      1.40552007751533     -0.00137837849035
  N   4.03250001515451      0.17998165553836     -0.00269516344934
  C   2.98678915919440     -0.69344762357411     -0.00338401297476
  N   3.12817198071346     -2.00888578848987     -0.00532927064908
  C   1.72666191804603     -0.00578597220619     -0.00194407032221
  H   -4.52863360937850      0.00555810712226      0.01371260420327
  H   -4.48803438394303     -1.73511914864173      0.01069326126922
  H   -0.75957231330963     -3.54440391343067     -0.01303167585657
  H   1.20988428224715      3.35941936999663     -0.00261328178854
  H   4.12108285834452      2.28082369471989     -0.00087617798717
  H   2.27504602460512     -2.55713999511737     -0.00746335933313
  H   4.04257236473641     -2.42656378526243     -0.00799804653931
