28
Coordinates from ORCA-job ./opt_b97-3c_parallel
  N   -2.44176074830629      4.04411181782007      0.00448691209305
  C   -1.70602946820400      3.14665625734211      0.00069567241531
  C   -0.82543100100753      2.03587598309589     -0.00243097314651
  C   0.54392123450404      2.23662583211565      0.00197004378481
  C   1.46679684964798      1.17452510741741      0.00209788449880
  C   2.80982325298146      1.55390230809663      0.01083995882850
  C   3.99554869853228      0.82737269070036      0.01250230171603
  C   4.15871034045697     -0.54120123477185     -0.00064919535641
  C   3.15858920733760     -1.51175444751824     -0.01760169416429
  C   1.79082127375122     -1.35229572661052     -0.01984517244009
  C   0.96023265593021     -0.21387515703518     -0.00587567065674
  C   -0.43030867649868     -0.39688666393566     -0.00543345706432
  C   -1.25545465186424     -1.56015438914803     -0.00305652512846
  C   -0.91083802194316     -2.90852977475209      0.02835578275990
  N   -0.69159995107367     -4.05444491334372      0.06002110960327
  C   -2.61582556353250     -1.13416088655433     -0.00393587585128
  N   -3.68006242857446     -1.97078224041822     -0.05091026492117
  C   -2.65653196076550      0.27335801030817     -0.00687062485775
  C   -1.34679326834287      0.73148776725581     -0.00601869682112
  H   0.91979358955160      3.24875253854882      0.00693563177965
  H   2.95491663333983      2.62814779323039      0.01826340368153
  H   4.90136170408437      1.42030202952057      0.02314294245474
  H   5.17879172320498     -0.90597785833075      0.00070417711082
  H   3.49893949819583     -2.53943877931409     -0.03028300956030
  H   1.25377828229650     -2.28931526448139     -0.03449945723905
  H   -4.58147038992004     -1.61245055686172      0.20605409086783
  H   -3.52982637839462     -2.94389488779068      0.15397822923483
  H   -3.54490745988731      0.88385913061463     -0.01622351302171
