27
Coordinates from ORCA-job ./opt_b97-3c_parallel
  N   5.46725741479012     -1.38004715443807      0.57960109817972
  C   4.45053290941773     -0.85341837288189      0.38762113207359
  C   3.21132447440373     -0.20352802374526      0.14770753577744
  C   3.27549814751680      1.16976408264832     -0.15503068625106
  N   2.33178536005430      2.06318856183161     -0.27684021428147
  C   1.00294797212505      1.90636224385003     -0.12133292401831
  N   0.34688821377269      3.05272790514626     -0.05036699412770
  C   0.19011230820519      0.68887863478668     -0.08439785813967
  C   0.73410414946673     -0.65122848062419     -0.07615431189279
  C   2.06254432469075     -0.98972451090021      0.14691173241271
  C   -0.20190080663526     -1.75995913226632     -0.20041880188623
  N   0.27155938284034     -3.03816111041492     -0.36753456123838
  N   -1.51420210558204     -1.64116823999749     -0.12153450344815
  C   -2.00328178420379     -0.40738733055867      0.00799696094136
  C   -3.32812651358777      0.03981815461213      0.12524640061414
  C   -4.49589078181501     -0.72872642399689      0.19085474220434
  N   -5.47400576522637     -1.35421293858192      0.24440486479475
  C   -3.23781032011609      1.45811789021331      0.14536366226575
  N   -1.98588207578201      1.90882502184978      0.05691702634732
  C   -1.18863766351923      0.78939385976627     -0.02378053152997
  H   4.27625782998192      1.56966371747150     -0.29009974075394
  H   0.88946716759805      3.89744142594833     -0.12814724266204
  H   -0.68659110551151      3.04629913476061      0.02705294609957
  H   2.24075169375921     -2.03625636309543      0.35212994492425
  H   -0.47233702012328     -3.70591678360485     -0.49392686368818
  H   1.04077089507946     -3.17742780134753     -0.99898720193710
  H   -4.06995742989973      2.14067143546875      0.22636697702004
