31
Coordinates from ORCA-job ./opt_b97-3c_parallel
  N   -0.07819950970324      4.20164887397239     -0.38628167733367
  C   0.12019585791237      3.05754824959723     -0.30530328776277
  C   0.51143090111831      1.70745143188459     -0.22706637973934
  C   1.90678916234778      1.41326798449950     -0.28169900713760
  N   2.78348052087872      2.41144927399129     -0.54602703227151
  C   2.30777707726924      0.09895753010768     -0.06111753953624
  C   3.58297003497036     -0.49383662791114      0.01774518872031
  C   3.42905770521972     -1.85071681600357      0.28851733788463
  C   2.05300187280095     -2.14143300279678      0.36861643847472
  N   1.51885650455411     -3.38599762879368      0.62179738860817
  C   1.32610487675077     -0.93638682511650      0.13546462885386
  C   -0.05263682885241     -0.69650422605880      0.01505998995498
  C   -0.95842456398448     -1.72524885633185     -0.21706892621210
  C   -2.35814012917951     -1.67158881934163     -0.37582554301972
  N   -2.95826989557832     -2.81884280516974     -0.82908777586802
  N   -3.21510357062096     -0.70715025553927     -0.07459714489017
  C   -2.83443682888697      0.50013750516191      0.36206162474386
  N   -3.82705507182460      1.20752763013853      0.96330338100488
  N   -1.69436698042751      1.17191911623924      0.24934160414432
  C   -0.46967316434890      0.72281367490712      0.00393944793636
  H   3.75663074675476      2.26253330139143     -0.35657908990450
  H   2.46310404109705      3.36375711497845     -0.49363380140314
  H   4.53345058123591      0.00442032638013     -0.10250558573781
  H   4.22563259342904     -2.56456380180251      0.43319935765940
  H   2.16153706254967     -4.03040377988659      1.05436835816699
  H   0.62839986730364     -3.37932430735075      1.09627283328921
  H   -0.52459607434243     -2.69163911519055     -0.43309058548355
  H   -2.41573132319343     -3.45342961175454     -1.38657272352859
  H   -3.92104476379374     -2.71464972200026     -1.09898606746247
  H   -4.76452255504514      0.86277645138310      0.86751217396920
  H   -3.68875835691200      2.19757835791432      1.05683563388019
