29
Coordinates from ORCA-job ./opt_b97-3c_parallel
  N   -5.48999600933872     -1.40408509955331     -0.59922838317066
  C   -4.48433292186334     -0.85911744769128     -0.39952510003196
  C   -3.26055042037504     -0.18287635726380     -0.14489445767631
  C   -3.34485220563998      1.19835375475430      0.11426039135206
  C   -2.32929435192775      2.08857180781432      0.26188130025859
  C   -0.92280327395661      1.93272849732602      0.12835892252425
  N   -0.22659824587166      3.06820729740457      0.12385404259899
  C   -0.16937959141726      0.69774088485287      0.03666140124378
  C   -0.76093871765240     -0.63137091395477      0.07452895043237
  C   -2.11060699865201     -0.95059365607480     -0.12951764293583
  C   0.10343396634837     -1.78114311233004      0.20840842680378
  N   -0.46412932589053     -3.04313774819569      0.36871412671575
  C   1.47612256484319     -1.66295241737085      0.11400343964498
  C   2.04456029588350     -0.41361169028654     -0.05796149021529
  C   3.37670294785639      0.04165514091643     -0.14810899834641
  C   4.53178436950257     -0.74695661957330     -0.16427831219566
  N   5.47893062702606     -1.42252083656831     -0.17287859553718
  C   3.28686059986771      1.44994114991374     -0.19370352747258
  N   2.02537007051030      1.88666806568348     -0.13815916435250
  C   1.22558048965709      0.76701597127712     -0.06062573886483
  H   -4.34559097132102      1.60454246384691      0.18329215738923
  H   -2.63968390001475      3.11208721494087      0.43716789668556
  H   0.80707662912699      3.01761202198121      0.01733072219327
  H   -0.70532162309487      3.94940200644921      0.18464970615437
  H   -2.28245148801287     -2.00008899328382     -0.32411796230196
  H   -1.15085804573397     -3.11863422794116      1.10161910220554
  H   0.21682964950871     -3.77997713849725      0.44975254699242
  H   2.10503062132469     -2.54021265756808      0.20602653132300
  H   4.11306729470697      2.14019023099198     -0.26585869421692
