29
Coordinates from ORCA-job ./opt_b97-3c_parallel
  N   5.08808380899151      1.79014490596180     -0.59208648135782
  C   4.15207834493184      1.13366465758948     -0.38848101885342
  C   3.01408719467413      0.32310459615179     -0.12999299196780
  C   3.25638358861539     -1.02949826148756      0.16682525134224
  C   2.34950765512614     -2.03015629715683      0.32874827302995
  C   0.93916892660933     -2.04557862063878      0.17042740830758
  N   0.37631850395368     -3.25106186304848      0.18758735800301
  C   0.04213724376254     -0.90902371399269      0.03014110084934
  C   0.47562089675168      0.48054671007314      0.04953266193695
  C   1.77985609523631      0.95102916458787     -0.14633511081252
  C   -0.51553426425486      1.52708993785670      0.15558287460747
  N   -0.10253240866031      2.83675130477971      0.31718842765953
  C   -1.87613587663551      1.24230328934887      0.03307571599674
  C   -2.82058163247814      2.28629140601384      0.14578166624581
  N   -3.57440767605949      3.16488550182694      0.24637664266211
  C   -2.30060348682950     -0.08298229604688     -0.14711032247576
  C   -3.54500982495287     -0.68930851413512     -0.26665745750336
  C   -3.28516034576458     -2.06815257277945     -0.28292992928198
  N   -1.97653603559038     -2.35875953461142     -0.17909099518268
  C   -1.32655429565547     -1.15004611015751     -0.10068149509006
  H   4.29682068241008     -1.31357379333826      0.25633640939613
  H   2.77552137369314     -3.00511099057433      0.53538733195832
  H   0.95247397203949     -4.06968177190139      0.27704581646806
  H   -0.65806720516531     -3.31674307044549      0.04871981988048
  H   1.83383306399413      2.00772841144629     -0.36623005319195
  H   -0.85057027118498      3.50852080237735      0.38623195526774
  H   0.59667843559252      2.99538891365047      1.02291552171528
  H   -4.50540473710657     -0.20548931626211     -0.32189816581703
  H   -4.01080727004402     -2.86363124448788     -0.36726864369238
