31
Coordinates from ORCA-job ./opt_b97-3c_parallel
  N   4.29747967911790      1.94352441368595      0.01755820143884
  C   3.21198249203431      1.09025194643481      0.00738533964562
  C   3.48650099575321     -0.27131109487792      0.05100908036976
  C   2.55976417519940     -1.32141189430952      0.11225028637131
  N   3.10382193044943     -2.59040415680795      0.23165337062217
  N   1.23683428628107     -1.32653983535453      0.10163479181312
  C   0.37743366044370     -0.27766030708364      0.04844115692159
  C   0.67423148804345      1.16930647802578      0.03305473514336
  C   1.95653530312548      1.71069272966769      0.00561114060064
  N   -0.31810297275748      2.09714721308338      0.05699222113956
  C   -1.60248959502596      1.75435239174118      0.03888030059720
  N   -2.51763512187975      2.79039067679283      0.08261078057659
  C   -1.99739037871645      0.42385577463386     -0.04545242567920
  C   -3.21119297019586     -0.28943317309652     -0.09420795793888
  N   -4.47747324766730      0.22792956185445     -0.15116175416506
  N   -3.02085784208701     -1.63341698178702     -0.04317540712392
  C   -1.68810105908801     -1.81606524502771      0.01329557762065
  N   -1.10852458531459     -3.02497486366321      0.04808299817298
  C   -0.97376005702750     -0.57273249215330     -0.00405277176326
  H   4.13472214597055      2.87725664810543     -0.31598338533788
  H   5.17619417146696      1.56120541054152     -0.28446595254757
  H   4.53240760611513     -0.55312231666732      0.08152714040599
  H   2.47795005400604     -3.32539128456634     -0.04999192206248
  H   4.04298059492945     -2.71118912692261     -0.10554320067011
  H   1.95919788530593      2.79333356375639     -0.00814885218214
  H   -3.34284775967949      2.59750343653899      0.62855279663885
  H   -2.08130094625436      3.66238667334937      0.34096747073796
  H   -4.57029066979272      1.07593374302906     -0.68723754070668
  H   -5.17638714821130     -0.46065486950472     -0.38188920568635
  H   -0.11677972750169     -3.01272703903410      0.24489948462213
  H   -1.67035698814254     -3.82529396418432      0.27803133312525
