30
Coordinates from ORCA-job ./opt_b97-3c_parallel
  N   5.97141092643612     -1.03024519358150     -0.02275337986103
  C   4.87750559217908     -0.63709888092325     -0.01884007583573
  C   3.55166584920252     -0.16972615985396     -0.01382892342456
  C   3.15240638098040      1.18238980265259     -0.00445871053259
  C   1.75350599883348      1.20034165862207      0.00150967573170
  C   0.85318178085006      2.25158188499624      0.01054815803980
  C   -0.50974615789088      2.00614205015771      0.01842706224907
  C   -1.38389536940477      3.11509246641422      0.02388181354723
  N   -2.11239691706628      4.02177172028294      0.02512155518645
  C   -1.05560816778232      0.66690784719287      0.01735102319109
  C   -2.43054139928048      0.56426510743079      0.04560555524214
  C   -3.32078811287268     -0.52932627525324      0.03566415018962
  N   -4.65231262084982     -0.19963811114878      0.12011463603279
  C   -2.99581407225925     -1.87508960520946     -0.00715233101719
  C   -1.72767655797474     -2.45547060885897     -0.03604073173928
  N   -1.68500257989069     -3.83019099617020     -0.12505658919363
  C   -0.49146236037248     -1.80143995699402     -0.03992284477417
  C   -0.11590240034803     -0.46448486040659     -0.00833051021202
  C   1.27292676941556     -0.16296526535882     -0.00591111046197
  C   2.40330287604521     -0.99139791662850     -0.01492710827002
  H   3.81089494962670      2.03503815273222     -0.00061787556306
  H   1.20130346685905      3.27585424138382      0.01218027346910
  H   -2.94080353414723      1.51860796613684      0.08298677900139
  H   -5.32986296701398     -0.89128633230164     -0.14565239788614
  H   -4.91768582646584      0.74234467958821     -0.10563976892950
  H   -3.83212756042087     -2.56575813264426     -0.01634657526442
  H   -2.49826905330139     -4.34082000053116      0.16927622723712
  H   -0.82089571517044     -4.28126505610730      0.11735966474576
  H   0.34833684817044     -2.48327408718564     -0.07446277954745
  H   2.44095553801361     -2.06833130763322     -0.02023940745049
