28
Coordinates from ORCA-job ./opt_b97-3c_parallel
  N   -3.25019585389613      3.04133366729928     -0.10110825712322
  C   -2.42249536788288      2.22757723295380     -0.04945510364276
  C   -1.33871684316152      1.32459231811093      0.00483146062406
  C   -0.02638570595890      1.82770247180712      0.00827043438837
  N   0.17397154588170      3.19433099617959      0.01433212189017
  C   1.08994062680066      0.94090790777832      0.03281070608893
  C   2.34068007656267      1.53142723832432      0.27468623992239
  N   3.57113958870553      1.11688514189984      0.02593878103972
  C   3.86313363321977     -0.10122403876870     -0.42074044098220
  N   3.24485029650367     -1.24155892490203     -0.26077006767058
  C   1.97868164445091     -1.40505128950393      0.15484847901165
  N   1.74640586095934     -2.60865489292264      0.69119636666509
  C   0.87098713431568     -0.50548031240644     -0.01735329181238
  C   -0.43573915138320     -0.99435208191894     -0.04184633654740
  C   -1.05142451639698     -2.26320814973221     -0.10266780825717
  C   -2.43103872952681     -2.00566958779184     -0.12113985265137
  N   -3.44427809617366     -2.90464180582347     -0.16503900063634
  N   -2.73946421237943     -0.67456506435204     -0.04197382272104
  C   -1.56270276178516     -0.05688387876290     -0.01043327849537
  H   -0.66667303209423      3.74546878319945     -0.05736392970416
  H   0.89993423768275      3.54307884932729     -0.58578994196456
  H   2.30604555195062      2.52947666418891      0.69941785382908
  H   4.82544790476529     -0.17612330156442     -0.91988994872509
  H   0.86749465767885     -2.81285593099977      1.13560266099040
  H   2.52452511765457     -3.23335426795038      0.80667655142931
  H   -0.59837780808649     -3.22867027263306     -0.24895820722030
  H   -4.34867939006882     -2.52891545832520     -0.39343318831323
  H   -3.25471865862949     -3.82839411320817     -0.50841823621023
