26
Coordinates from ORCA-job ./opt_b97-3c_parallel
  N   -5.92704002347255     -0.71587894167875     -0.34348858686966
  C   -4.80009392437494     -0.44693013370314     -0.25944472824353
  C   -3.43619573224685     -0.11778230922785     -0.15791558149003
  C   -2.91398934366170      1.19522900490041     -0.07399337720011
  C   -1.51997644691996      1.09111090438464      0.00451514763623
  C   -0.53309580639898      2.04949390968121      0.15345398951482
  C   0.80473109513755      1.67179954885041      0.21115202779235
  C   1.80805918096195      2.66625839565648      0.29743156366561
  N   2.60327225093796      3.50852830173698      0.37498984779451
  C   1.21197459053619      0.30475104755490      0.09722523052798
  N   2.50506169442160      0.12469055272593     -0.06349822471641
  C   3.22017740047796     -0.99926550628028     -0.14695003638186
  N   4.49905134213338     -0.78998639490169     -0.51930032983325
  C   2.80469278486864     -2.30761383348129      0.16667819732580
  C   1.50453786920216     -2.70402323224934      0.38560389139367
  N   0.35001924094756     -2.05760165779348      0.29364475525792
  C   0.15014308240021     -0.75507563768840      0.10532772317134
  C   -1.17405255327980     -0.31003837954888     -0.02751764217098
  C   -2.37312663549064     -1.03862296491989     -0.11808616241201
  H   -3.49607721982824      2.10213044251368     -0.06454798832699
  H   -0.78355325770059      3.10042343775345      0.20771043919913
  H   4.81220445194483      0.15763128007270     -0.63522120206551
  H   5.15881808367545     -1.53847543376630     -0.61151625821204
  H   3.56670922600738     -3.07441619369622      0.23949482728215
  H   1.38125138142045     -3.75057429438028      0.65142977906816
  H   -2.46373598319909     -2.11041310211501     -0.15484999870727
