25
Coordinates from ORCA-job ./opt_b97-3c_parallel
  N   4.87258982149725      1.38559731685867      0.20857225405108
  C   3.80672722907440      0.91697182650995      0.17312089311733
  C   2.53855901416991      0.33873928520554      0.12884221775267
  C   2.27131145468886     -1.05224580064533      0.04551445611209
  N   3.20368806445536     -2.00731527263366     -0.01280387815375
  C   0.85146415851151     -1.23527108876989     -0.00085598620122
  C   0.03069173677778     -2.30382175073351     -0.25954743607324
  N   -1.30466480912973     -2.19621520935851     -0.24400910098772
  C   -1.89520648900702     -1.01627124143575     -0.04027118598640
  N   -3.21108674160845     -1.08323024209057      0.27090766715973
  C   -4.04866343691274     -0.07947260093440      0.33419303294242
  N   -4.00547111877228      1.19791578434091     -0.07065098306334
  C   -2.86530660769577      1.83238728285293     -0.31857889359278
  N   -1.59224439595050      1.50645560134635     -0.19111914482689
  C   -1.11757305884866      0.23490783350495     -0.02621888580421
  C   0.24623343994077      0.05889742749530      0.08547332643023
  C   1.29627257929047      1.03088938480244      0.12339239673868
  N   1.08337281917384      2.33755267156435      0.13449881547498
  H   4.17871364376486     -1.77542951237053      0.05800702552080
  H   2.95571566117054     -2.97762583226393      0.02618567375218
  H   0.41644646569868     -3.29439407838415     -0.47955574744904
  H   -5.01047826895067     -0.35086012954689      0.76402732311466
  H   -3.00775726859966      2.86175217639351     -0.64091200557938
  H   1.83984086425890      2.99724121045519      0.07512904985998
  H   0.11378424770237      2.62453167813700      0.00976545509115
