28
Coordinates from ORCA-job ./opt_b97-3c_parallel
  N   -0.96823853469491      3.53590789279322     -1.30299937403895
  C   -0.51562462735042      2.55966899512022     -0.86391018370224
  C   0.14890381630729      1.39300329320028     -0.42209843191226
  C   1.53257766832770      1.49920431701854     -0.22547314546320
  C   2.26623612246106      0.38285722901845      0.08362552657501
  C   3.66417610814619      0.16808002740316      0.27500111425358
  N   4.61063858291735      1.11461588444609      0.39536024344175
  C   3.88496380538201     -1.23869338177413      0.33859895312882
  C   2.67689227502972     -1.88117863623764      0.17617855104515
  C   1.64341676362480     -0.90939909930983      0.03291277669608
  C   0.28993025368105     -1.07376768542992     -0.23037911399975
  N   -0.13624574357521     -2.31614057017568     -0.55380276201839
  C   -1.36459607767303     -2.74394276915596     -0.66477386210337
  N   -2.54843502774119     -2.26948070232601     -0.28577297292606
  C   -2.77702295920278     -1.02861946870948      0.12538964850139
  N   -4.00724442203237     -0.84665969322104      0.63592908629585
  C   -1.91262062513019      0.13032940610396      0.04059819285314
  C   -2.53881194066014      1.32384058991386      0.46097072438561
  N   -3.16166091148717      2.20272359411162      0.90282540725363
  C   -0.53278057622632      0.14954232773483     -0.24385882667545
  H   1.98447932307405      2.47633394976423     -0.33950338950061
  H   4.39258769043223      2.08194374409461      0.24276017093615
  H   5.58232170966175      0.86614941593946      0.37568756521954
  H   4.84501432832600     -1.70806516007736      0.48642383544600
  H   2.51932079494882     -2.94675522328563      0.15714554870957
  H   -1.43859163632703     -3.73451067760094     -1.10721189107388
  H   -4.34946903718043      0.05481919925778      0.91741543005887
  H   -4.63228404593829     -1.63176092301726      0.61162925841394
