34
Coordinates from ORCA-job ./opt_b97-3c_parallel
  N   5.43899629994302      1.01891190198119      1.33414642351207
  C   4.43507344269529      0.62627983821584      0.88897708234347
  C   3.23637815729134      0.13544405283610      0.34510000740977
  C   3.14287732889872     -1.27264358821778      0.17637574889827
  N   4.26184512124008     -1.99789469982131      0.44535398687621
  C   2.03954895360751     -2.00031257415117     -0.26912904730676
  C   0.70109122665539     -1.65407889560247     -0.41841625227410
  N   -0.10950805418337     -2.72363968738985     -0.66300339582270
  C   -1.41861735567822     -2.58505480854802     -0.58620757227310
  C   -2.02223409554937     -1.39121493658786     -0.24336823563430
  C   -3.36356588360072     -1.05899078090491      0.06049010012057
  N   -4.42433707398595     -1.87943501862735      0.08053030689029
  C   -3.40661196967309      0.31802499430884      0.39967738074347
  C   -4.54817411495960      1.02260345305496      0.77776590497838
  N   -5.50690003408415      1.60581463311109      1.09231254823655
  C   -2.10543297204391      0.86242342312208      0.27560351439290
  N   -1.81331715423301      2.12517539297992      0.61411632588221
  C   -1.20838194956181     -0.21050123812845     -0.12423518816450
  C   0.16616892401802     -0.29771560554573     -0.32185984330413
  C   0.99025378962124      0.86095326663399     -0.57182882355736
  C   0.38881155321759      1.92357056110998     -1.25121262394838
  N   -0.09600286630212      2.84705632737698     -1.78034350274449
  C   2.33039222787172      1.09805805104713     -0.17055854074637
  N   2.78783355556634      2.36685586633849     -0.25519550368047
  H   4.18410864843785     -2.99183589928005      0.55020898377073
  H   5.06129092658980     -1.56233175411390      0.87025718488446
  H   2.20634303650238     -3.06100208020772     -0.40507427920973
  H   -1.99985411794221     -3.48040231526213     -0.79035541657549
  H   -5.34584048844399     -1.50386425176130      0.21832924321549
  H   -4.36350237954985     -2.80591053775841     -0.29697275002582
  H   -1.06379954967590      2.60619667946673      0.14071437944539
  H   -2.59211661469745      2.71650091715957      0.85949050732113
  H   3.76280519276253      2.56925244501964     -0.12721896903237
  H   2.20507538164596      3.10037217344610     -0.61581698682118
