25
Coordinates from ORCA-job ./opt_b97-3c_parallel
  N   3.36223748883958      2.84012916308587     -0.00740032430656
  C   2.81185149716746      1.81734950922678     -0.00343793196993
  C   2.28635131019294      0.49435514471162     -0.00195133949475
  C   3.27127432930281     -0.50542824996838     -0.01757388249413
  C   3.14244036831955     -1.87129663675958     -0.01895876964057
  C   1.94992063664924     -2.60549507811875     -0.00719175548494
  C   0.65845717061276     -2.15913523685865      0.00530973895334
  C   0.10706788851647     -0.84957101664315      0.01081865481323
  C   0.86297041219429      0.40048519505341      0.01534097572583
  N   0.26078816402004      1.60726490000244      0.03502568561960
  C   -1.06538008474006      1.70658075387930      0.04410533688092
  C   -1.89005405339845      0.60841445190395      0.02868555562280
  C   -3.28669385486088      0.37382779772096      0.02681572434638
  N   -4.29953525051190      1.26832990384463      0.07974843403298
  N   -3.55613655899606     -0.96034659393182      0.01719183739572
  C   -2.37835250866715     -1.59888936161399      0.01050512216354
  C   -1.28410030371247     -0.70295884745098      0.01453990987297
  H   4.28486546551208     -0.12640543397101     -0.02874840393279
  H   4.06179924267469     -2.44123585278749     -0.03006753645074
  H   2.06559444444620     -3.68292659658098     -0.00908376146907
  H   -0.08669915906605     -2.94404640284256      0.01167819742634
  H   -1.45275588710744      2.72131054930261      0.06713771019976
  H   -5.21787471570731      0.91049482073492     -0.11963132132218
  H   -4.12920789704863      2.22020786306395     -0.18834250289107
  H   -2.35775217413173     -2.67808754690310     -0.00260861159668
