27
Coordinates from ORCA-job ./opt_b97-3c_parallel
  N   5.85529878500911     -0.60844836053189     -0.20232195111043
  C   4.74162068611291     -0.28085507335556     -0.15187289959333
  C   3.39417323771676      0.11720457183753     -0.08974469818395
  C   2.93387660884000      1.45703843514976      0.00078932349116
  C   1.53751926638571      1.42111706235258      0.03552106753846
  C   0.57769089145137      2.41837319213116      0.15192223559612
  C   -0.76036355352260      2.08536625888430      0.16685688490502
  C   -1.22638109783371      0.76105763538367      0.06294373509142
  C   -2.61671561714239      0.54734346914098     -0.04989854219066
  C   -3.46175372137939      1.69010076420963     -0.05667120499307
  N   -4.18482019103644      2.59922122773872     -0.06227524329660
  C   -3.32979817261277     -0.66175458233868     -0.19259842670878
  C   -2.88911752787065     -1.94851329318595     -0.17501676848060
  C   -1.55154782489352     -2.37692992887093      0.03493844829593
  N   -1.35409501194244     -3.71648892354087      0.16193039324048
  N   -0.44654626510413     -1.66124040670045      0.07246366175052
  C   -0.22817416137148     -0.34638413027778      0.01937172714537
  C   1.12079711085991      0.04252123326300     -0.03288722064413
  C   2.28848080480775     -0.74604600594975     -0.10366575179320
  H   3.56058606474396      2.33299185762464      0.03989875984204
  H   0.86810852482227      3.45872964689729      0.22425922703298
  H   -1.48954681764061      2.87851474399259      0.23270782474696
  H   -4.39602020136196     -0.53642027098983     -0.32825615954100
  H   -3.63560336881247     -2.72194027543578     -0.30510404298894
  H   -2.11754233603639     -4.33292506071960      0.36834807932413
  H   -0.42889308819330     -4.01902114412801      0.41040121135836
  H   2.32902519910448     -1.81952618118076     -0.16451567373424
