33
Coordinates from ORCA-job ./opt_b97-3c_parallel
  N   -5.68695154985883      0.55636345474721      0.01612144920328
  C   -4.52654140862253      0.44263582117410      0.01087798408409
  C   -3.12865433780240      0.30200673851763      0.00676815044501
  C   -2.62173514545714     -1.01496327348016      0.10431416244225
  N   -3.53149913664544     -2.01900740791772      0.25083456894908
  C   -1.28189724915065     -1.42083512856218      0.09463368908678
  C   -0.06941812831424     -0.74899660627859      0.02021440584494
  C   1.11253941859156     -1.55695269457686     -0.03457286925096
  C   1.00633371013020     -2.95487368224261     -0.12554616580691
  N   0.98083305673058     -4.11692562166719     -0.20940671000454
  C   2.42295619995013     -1.01985865827272     -0.03845541658678
  N   3.51423195188226     -1.83296689953126     -0.09776282635493
  C   2.55226265896416      0.36138992152956      0.05430180617766
  C   3.65943045500340      1.22788698814019      0.10078767719073
  N   4.99409605364675      0.89324064762091      0.16454188132418
  N   3.27040296739523      2.52788527005086      0.05086217695201
  C   1.92880045818221      2.51957195010747     -0.00363966793967
  C   1.39776257232188      1.20974961392955      0.00982981759357
  C   0.07774646901766      0.70989343762104     -0.01040663444215
  C   -0.97713640383839      1.61707644883640     -0.08070512907554
  C   -2.36390271945538      1.49480710068713     -0.08853047095488
  N   -3.06611111379764      2.65906974050487     -0.23905119843471
  H   -4.50854689702966     -1.84226661269742      0.09738494573550
  H   -3.22986375221370     -2.96773739443670      0.13019420932150
  H   -1.17954895168592     -2.49657916715735      0.16176251905723
  H   3.35891704286999     -2.79877602383941     -0.33921924873153
  H   4.34653744036747     -1.43307676978660     -0.49901839906649
  H   5.57571993171341      1.70705274684252      0.29954755629047
  H   5.21745012671573      0.16728996097890      0.82896694475721
  H   1.39236613850084      3.45601925435012     -0.03678327862763
  H   -0.64987627208333      2.64654913633546     -0.15081151262054
  H   -2.58706780735572      3.52571921248456     -0.08013870713933
  H   -4.05190002887296      2.67098751268909     -0.04325534141913
