28
Coordinates from ORCA-job ./opt_b97-3c_parallel
  N   4.92164336853898      1.63621113376598      0.12615623828331
  C   3.87212192741711      1.13226042780723      0.10172325814099
  C   2.56865387363281      0.59718415760451      0.06133982082434
  C   2.44632333523663     -0.78567966657382      0.06708473836150
  C   1.33027419389713     -1.60470501570132      0.01323726651665
  C   1.63877624560403     -2.98970339845055      0.01831268395719
  N   1.90345475984564     -4.12140274524914      0.02164082503565
  C   -0.05800476618113     -1.23805437308237     -0.02822912914817
  C   -1.00902723259403     -2.26780858718104     -0.06371048641714
  C   -2.38323831939365     -2.06179394396629     -0.05439235581012
  C   -2.84523337462598     -0.76625018323821     -0.00425867012427
  C   -4.12998822312196     -0.15234016723522      0.03097151799019
  N   -4.06354424879852      1.17860204163331      0.07670988482909
  C   -2.72890689679555      1.48102839887842      0.06766334869394
  N   -2.28677766149415      2.72663801359196      0.10607394908724
  C   -1.90975374853653      0.30541987424031      0.02007047125394
  C   -0.52311382465890      0.15081880076248     -0.01159377813037
  N   0.18310804275433      1.30917551720005     -0.04045301067802
  C   1.48344437720335      1.53416729128572     -0.03258472778651
  N   1.82798924025405      2.84155772426755     -0.09502010008752
  H   3.38921102334510     -1.31387233801289      0.11231232911297
  H   -0.64766905847390     -3.28475658371701     -0.08994714240894
  H   -3.05538974268771     -2.90894731738087     -0.08022813297684
  H   -5.08695935290547     -0.65399355932978      0.02486956338950
  H   -2.93095644618101      3.49595836017688      0.16868168773999
  H   -1.28183624336700      2.84220216764348      0.11191259640485
  H   1.11266035984475      3.51092738063131     -0.30696041785215
  H   2.78639101914161      3.12201003342927     -0.20572928020110
