30
Coordinates from ORCA-job ./opt_b97-3c_parallel
  N   5.61079793486116      0.66740690863765      0.49366699286803
  C   4.45248949260922      0.67797737522896      0.37669602679571
  C   3.05169953097753      0.63644679644765      0.21655167356934
  C   2.37958077105172      1.86112440812298      0.34345776463828
  N   1.13574687429553      2.21915615843886      0.19297373302348
  C   0.04120621700970      1.44186595127866      0.00986210261589
  C   -1.12435648077630      2.17482297476565     -0.19800477339321
  C   -2.40346467053187      1.61373725079889     -0.23760391271941
  N   -3.51211446726123      2.39303751043314     -0.45886251449434
  C   -2.50591698164431      0.25389794793456      0.04268853322427
  C   -3.58913091178048     -0.60520881695398      0.30781575396520
  N   -4.91461694713151     -0.31116447591131      0.34728754923294
  N   -3.16707267034007     -1.88188619134324      0.55628353134209
  C   -1.84027684518018     -1.86123455769641      0.46819578065988
  C   -1.32871459994545     -0.55657931224509      0.16892951128583
  C   -0.03418678890049     -0.03337073866960      0.03385642764582
  C   1.08276175936603     -0.88861551793445     -0.20675803940806
  C   0.81197603531031     -2.21396350320893     -0.60855921429664
  N   0.72214542468964     -3.31898812742737     -0.96523147790573
  C   2.47873041931369     -0.62289041275534     -0.10973011930255
  N   3.33388191855378     -1.63871964353735     -0.32604214941876
  H   3.03708399129936      2.69057318585973      0.59338357794753
  H   -0.99737844253866      3.24417675898626     -0.29351560229444
  H   -4.27591011411249      1.94402399394330     -0.93772871136191
  H   -3.33122325234957      3.31861968306376     -0.81046399624848
  H   -5.48512007549790     -1.04814254603891      0.73139091499589
  H   -5.17283507840964      0.61217653018078      0.65522619972054
  H   -1.27929766215725     -2.75878558249439      0.66258520760549
  H   4.32610451947400     -1.48495619190340     -0.29063523585387
  H   3.00447888522288     -2.56307038030021     -0.54198390654246
