31
Coordinates from ORCA-job ./opt_b97-3c_parallel
  N   -3.50244799384258      3.12573668772927      0.50990588644311
  C   -2.94391198569598      2.11785715262585      0.35223217780994
  C   -2.36675742171427      0.84044554263236      0.14923978936929
  C   -0.98535574827918      0.77548200948541      0.15793278638404
  C   -0.06570769098758     -0.27967895997469      0.05230905187860
  C   -0.43355342686276     -1.69707987869381      0.02094753427029
  C   -1.71637357122043     -2.16971634156054     -0.21416358708250
  C   -2.95336764853840     -1.55525507860175     -0.31372549821592
  C   -3.30329576239744     -0.22274431023338     -0.10828419624590
  N   -4.60813481582093      0.10933959131682     -0.16543802017502
  C   0.62034613081234     -2.65966101631030      0.14933343418037
  N   0.32790440447397     -4.01013437103952      0.26905875933047
  N   1.91202338138484     -2.36566726599926      0.11272717786314
  C   2.26762686214171     -1.08357276738549     -0.00295032956559
  C   3.55321742584466     -0.56321377590975     -0.07496105598868
  C   3.43852190475296      0.83844365268736     -0.10253576203272
  N   4.45080931130980      1.72923652640178     -0.13696714155556
  C   2.05580547412511      1.21364328752222     -0.04287419479543
  C   1.64080962628558      2.53934955397400     -0.10995396115882
  N   1.35111789284678      3.66887928692734     -0.17223823535473
  C   1.29837891267060      0.02135496575885      0.00858213154897
  H   -0.52531840599827      1.74567765284620      0.28385324437017
  H   -1.76683854822908     -3.23732161676916     -0.38802132962195
  H   -3.77857375360743     -2.21670510287219     -0.54954592801416
  H   -5.30401812856993     -0.58506272510337     -0.36091704217522
  H   -4.91277946604456      1.06100466228388     -0.05551632323572
  H   -0.38956205607031     -4.24637503654137      0.93396637009152
  H   1.16981490742974     -4.54286904519835      0.42263128537996
  H   4.46764644173083     -1.13268485478615     -0.08192744293535
  H   5.36872146329074      1.42148357037426     -0.39908706406693
  H   4.24061554927972      2.69754101411340     -0.30858588669995
