28
Coordinates from ORCA-job ./opt_b97-3c_parallel
  N   3.22207150291263     -3.21868541047985      0.01304817401616
  C   2.74341346306193     -2.16307049252960     -0.07530832444994
  C   2.13429065192957     -0.88977077388073     -0.13447817488263
  C   2.87260847879026      0.14003213583131     -0.72452355637488
  N   2.75143978919832      1.43121472550206     -0.55568105168105
  C   1.75329892290696      2.07526646925726      0.03874687194632
  N   2.09723820603827      3.26131060460229      0.56472489992163
  C   0.36154854501090      1.69858678421161      0.02714474848169
  C   -0.58370611085420      2.73795661776898     -0.07107746570181
  C   -1.93874254770693      2.49654292124181     -0.10626609526105
  C   -2.39132312773816      1.18723553889045     -0.06571102511137
  N   -3.67547091493488      0.76427445424142     -0.16768604088276
  C   -3.60817800306917     -0.56933844646266     -0.17202226327809
  C   -2.29017993974215     -1.07187263967863     -0.05404143715568
  C   -1.95448214450346     -2.42238494520301     -0.17156507557175
  N   -1.67305182413887     -3.55094068094773     -0.24878599739452
  C   -1.45341441946373      0.08567784560861      0.03097947464678
  C   -0.07027917091238      0.33782656158455      0.12497158922336
  C   0.84235480287707     -0.74977011040988      0.43948207995713
  N   0.39697178630847     -1.72042866428552      1.22995144768643
  H   3.73285498698985     -0.16099155392921     -1.31250564319639
  H   3.05309465277383      3.56190336958241      0.48621675002248
  H   1.46866951724083      3.77705069249590      1.15047357763167
  H   -0.23175911947997      3.75115563217783     -0.19918242215715
  H   -2.64921945724327      3.30509844933359     -0.20760965824536
  H   -4.49438097834291     -1.17703611682697     -0.28120562655461
  H   0.88013617599081     -2.60301284718836      1.29259494281400
  H   -0.55456676719957     -1.71239883940798      1.55200619705127
