34
Coordinates from ORCA-job ./opt_b97-3c_parallel
  N   -5.37283556883317     -2.70553391390963     -0.05203252235946
  C   -4.41720275464872     -2.04067027204519     -0.02005693603147
  C   -3.31823061288393     -1.17521598445437      0.00854648562276
  C   -1.95875108116314     -1.51122305513484      0.05003340981184
  C   -1.20075416283576     -0.32383735380361      0.01239268865206
  C   -2.13473777025716      0.77159262590865     -0.03159171148824
  C   -1.66701314299042      2.09176970781475      0.03582463706009
  N   -2.54655986419298      3.14554674455061      0.08104997832360
  C   -0.29358334001302      2.30579174102864      0.01848934096299
  C   0.66040008790520      1.27675531411550     -0.01267429932971
  C   1.99900987574789      1.67698712327912     -0.05787639307142
  C   3.21377440872628      0.99770347748674     -0.07488018637098
  N   4.33409474189984      1.77844099507399     -0.20741866314481
  C   3.42207488070742     -0.40457072059823     -0.01555724449174
  C   4.75623154844499     -0.84505572901831     -0.02398845596331
  N   5.86334800027066     -1.21147396377324     -0.03053108973803
  C   2.42202716233836     -1.40567829788031      0.06275781760038
  N   2.85510292420751     -2.69936764109189      0.18814431162289
  C   1.03774597602091     -1.23022737797192      0.06402105394412
  C   0.20184920622123     -0.12127110394724      0.01480752076529
  C   -3.43263580258403      0.24882183672645     -0.05911686441474
  N   -4.62032244988953      0.95791801858188     -0.11316136658849
  H   -1.59545715246560     -2.52452523551768      0.08355819024596
  H   -3.43457325803991      2.94904703302642      0.51671599511322
  H   -2.15730879327603      4.02831843091360      0.36720532832828
  H   0.06622754588885      3.32692016856206      0.04471056346671
  H   2.11868338272907      2.75412459899885     -0.10423244343495
  H   5.23208291040853      1.37959681770979      0.00585108397003
  H   4.24745055753674      2.75538004698517      0.00349547396450
  H   2.19994663984585     -3.43481773800705     -0.00168787867990
  H   3.81343245047161     -2.91828253212488     -0.02226166057993
  H   0.50296380769676     -2.16946363039775      0.12246152506367
  H   -4.64106874543090      1.67357314122629     -0.82498196272551
  H   -5.43495037356305      0.36609071108772     -0.18858546900574
