26
Coordinates from ORCA-job ./opt_b97-3c_parallel
  N   -3.82175307102163      1.96844995632250      0.22650929326299
  C   -2.85405212330990      1.33433145762153      0.12878733821357
  C   -1.61256947434021      0.66510509779081      0.02200588762515
  C   -0.42913936424959      1.41823278820846      0.06514197311515
  N   -0.49284377506135      2.80418403939192      0.12616178470491
  C   0.84360803995737      0.77399948104044     -0.03177542847118
  C   1.94066428355088      1.59705525940580     -0.27832583648359
  C   3.31048980457351      1.35788484054013     -0.30453767448064
  C   3.98574679808656      0.19226439366884     -0.00269452301163
  C   3.42864403944777     -1.05089549574548      0.27699526627064
  C   2.10063732555349     -1.42351810408612      0.24880154137352
  C   0.91410277939366     -0.70087765666030      0.03669810927081
  C   -0.28407820611526     -1.41304483369736     -0.06588614314397
  C   -0.62915962763339     -2.78441988890614     -0.09379909331697
  C   -2.01640283330670     -2.81775533213470     -0.15343185228403
  N   -2.59353431811531     -1.57796619288353     -0.14920735013577
  C   -1.56293194730520     -0.72905922095046     -0.10034285371633
  H   -1.43098608274820      3.16865443615017      0.18850732596059
  H   0.09717500866080      3.22692970158301      0.82421627649901
  H   1.67428971513839      2.61917811972285     -0.51553752414923
  H   3.92244316133883      2.21387672070199     -0.55978271025393
  H   5.06783082812990      0.24538183681131     -0.00297883629604
  H   4.12980835990363     -1.84745512476538      0.49270687812135
  H   1.93316556261421     -2.47907729017073      0.41992062773094
  H   0.02943129795570     -3.63737277939711     -0.10886913688571
  H   -2.63925744169500     -3.69842875185768     -0.20887056882178
