33
Coordinates from ORCA-job ./opt_b97-3c_parallel
  N   4.76990529634228      1.79369144970865      0.28700992062508
  C   3.85126417964377      1.08406884490801      0.16998350296600
  C   2.77381609804470      0.21494270663895      0.01759348422473
  C   2.86278922110907     -1.16103815946301     -0.32510591888627
  N   4.03738089119888     -1.83252618453094     -0.52148702752116
  C   1.57145421948313     -1.70854763967068     -0.37793246965232
  C   0.63180472541531     -0.67854217609474     -0.12064280235493
  C   1.40033623786514      0.52904429202228      0.11914580688157
  C   0.76208744687535      1.70020147213100      0.45339469000272
  C   -0.62106149109397      1.79096875255370      0.37962022793823
  N   -1.20567901350749      3.06565507292234      0.61043670703839
  C   -1.42212851916284      0.67554812939680      0.03487729406836
  C   -2.74535318039218      0.90978251682251     -0.50971118110491
  N   -2.96524794829627      2.09791021620115     -1.14355768866156
  C   -3.82546268178180      0.02766756051137     -0.51047047340923
  C   -3.88111813177105     -1.25530653207175     -0.01298055985827
  C   -2.85796576627378     -2.06378253177123      0.41965922298845
  C   -1.47529050073334     -1.85993748826062      0.32238754088308
  N   -0.72358462809656     -2.96757346082575      0.60388391215145
  C   -0.77879846717790     -0.64320943811946      0.00309657915170
  H   4.84025563947983     -1.26572747613410     -0.73955211364885
  H   3.98761464015279     -2.67906615433956     -1.06077972104580
  H   1.36245727913290     -2.70343993331115     -0.73392617157115
  H   1.34340925169980      2.56954094855632      0.73966314925927
  H   -1.93836323584226      3.03160890136663      1.30574635960505
  H   -0.51176389324362      3.73534102511379      0.90502617707039
  H   -3.91901893255433      2.34334434207724     -1.34219543454690
  H   -2.35121818601245      2.86991854217816     -0.91147074551099
  H   -4.74945241322998      0.42005858388768     -0.91970198577849
  H   -4.87012626118105     -1.69801971867977      0.02432831345483
  H   -3.15488252351464     -3.04210595186190      0.77987220862301
  H   0.23508522958688     -2.81825446272283      0.88552464997659
  H   -1.19522967026425     -3.71584824243908      1.08069408584186
