32
Coordinates from ORCA-job ./opt_b97-3c_parallel
  N   -1.21970972532346     -4.67203316725622      0.11556186929333
  C   -0.82259542753456     -3.58084021718055      0.11858735986321
  C   -0.35535079544276     -2.24413939344647      0.12969708182389
  C   1.00573240337250     -1.99040082937841      0.09452966724949
  C   1.54619417534257     -0.69102948412864      0.07907501388132
  C   2.96983652178480     -0.60021365029790     -0.09604574514029
  N   3.71462813773699     -1.73510401413985      0.08578352686479
  C   3.67422828421626      0.49760544515938     -0.60239149919865
  C   3.29181577960188      1.82026426408925     -0.64163795287915
  C   2.17598057826489      2.41963846810195     -0.09356616270959
  C   1.06168756540897      1.79020047261607      0.45430665552935
  N   0.28541031577554      2.50908866148468      1.28683004646717
  C   0.63088189680177      0.42982059350097      0.16071353240414
  C   -0.74600724272555      0.17637425260637      0.07686542272150
  C   -1.89582139014744      1.02462457896243     -0.06220999762792
  C   -1.96872367052976      2.38133347534649     -0.35852773734321
  N   -2.08030516423746      3.52045537517577     -0.59326433978403
  C   -3.05028209647997      0.18447099175705     -0.10704103539936
  N   -4.32584204614253      0.64809692173597     -0.22053414567242
  C   -2.65568846884324     -1.15460895723783      0.01464718483543
  C   -1.26652759231167     -1.17802670882185      0.09527778338118
  H   1.64940533960528     -2.84380019028282     -0.03718024314071
  H   3.38468739140967     -2.42532651481549      0.73434224897832
  H   4.71247035094596     -1.62674576441314      0.07937327445583
  H   4.68773073468825      0.29071182862519     -0.92573253936881
  H   4.03043003780558      2.50078961102773     -1.04819951772106
  H   2.19944811944222      3.49986819692457     -0.01254544301508
  H   0.35953045635966      3.51147965576164      1.29537859168836
  H   -0.60764221490589      2.14266744786549      1.56523186125969
  H   -5.01367462592953      0.00762708767037     -0.57538760168042
  H   -4.43839136648651      1.59283969133275     -0.54958117445806
  H   -3.30642923282389     -2.01392992644395      0.01479043584173
