32
Coordinates from ORCA-job ./opt_b97-3c_parallel
  N   -5.50613062531823      0.82618097563701     -0.11396760116012
  C   -4.35493350152203      0.66744540304263     -0.05475966021412
  C   -2.97020460343449      0.39798672826619     -0.01673938643434
  C   -2.11784419078934      1.41471834621603      0.35725898620328
  C   -0.72148725532755      1.47505247910679      0.39970473817826
  C   -0.24505517072847      2.66805964084735      0.98006132999196
  N   0.14193099270375      3.66427913380011      1.44420778956893
  C   0.24421391178917      0.47411332206224      0.04982797553789
  C   -0.14645926417149     -0.94777691517857      0.06262673814393
  N   -1.35158892152961     -1.45735413269399     -0.19519530711700
  C   -2.54179720557075     -0.93348996901963     -0.36058279931068
  N   -3.46406404712368     -1.77392502996346     -0.87388104906394
  C   0.85155655365680     -1.90933819033248      0.30519582031942
  C   0.48087250236408     -3.26251110879634      0.43030998332242
  N   0.29986588026600     -4.40554215304397      0.54773017288217
  C   2.23977379894329     -1.59558030165941      0.28687046365052
  N   3.14564887559753     -2.56614452408216      0.53933148440747
  C   2.59494017271024     -0.28872971046771     -0.03228964773338
  C   3.85002292092786      0.27675633503438     -0.31975254873339
  C   3.68625792233733      1.60827680944821     -0.66669115955662
  C   2.32172260952717      1.94185824101795     -0.57651698293874
  N   1.81880115859224      3.12376846107694     -0.99086918928755
  C   1.59304360492408      0.74212975482719     -0.16220329457145
  H   -2.61156032993274      2.32732266026771      0.66370268520113
  H   -4.43402323258383     -1.52042610844661     -0.93328306200242
  H   -3.20608387203682     -2.74015940792110     -0.96790378414940
  H   2.84588945106706     -3.52619319281992      0.55551256975273
  H   4.11455429195160     -2.40563919435614      0.34004534654970
  H   4.80245580405868     -0.23098567288703     -0.28123017322892
  H   4.46654549159868      2.29022770411235     -0.96531410796521
  H   2.49756230770181      3.82201950000502     -1.24535782722214
  H   1.00939908143022      3.50939194232147     -0.52997179613437
