29
Coordinates from ORCA-job ./opt_b97-3c_parallel
  N   5.21534439507711      1.06407248860580     -0.14064463213799
  C   4.13916976742458      0.62076817976745     -0.09582131327502
  C   2.88983053215611      0.00504865621066     -0.05044593803287
  C   2.67191926142579     -1.41243905570147     -0.03665830305804
  N   3.64601342517203     -2.34137284437819      0.00602325576388
  N   1.37176889180582     -1.74276509477651     -0.02485516243919
  C   0.68393941174889     -0.55649503224002     -0.03149576958837
  C   1.60642681993588      0.56681569247234     -0.05301299306700
  N   1.22841112130248      1.84172650910861     -0.10302207881563
  C   -0.07556246093954      2.08310037868114     -0.06130753434764
  N   -0.42448548904735      3.41556406467367     -0.12437631458803
  C   -1.08861693650720      1.07107827021503      0.06970237680063
  C   -2.37965410823452      1.50865301564807      0.39856250127172
  N   -3.55699293176801      0.92576828988109      0.37295629942513
  C   -3.74719328507669     -0.34833774715870     -0.02699993834543
  N   -5.01636851385772     -0.60006951190993     -0.40734643602231
  N   -2.94764289334505     -1.40897513242823     -0.04932130678249
  C   -1.62417812115129     -1.42504030176208      0.07092352411504
  N   -1.09933066627755     -2.64083372338322      0.20748417112324
  C   -0.67768175779356     -0.31414751579905      0.00933925357954
  H   3.39768114906565     -3.29191983596648     -0.20067872061282
  H   4.58776733506908     -2.06003696399003     -0.20141518399975
  H   -1.21844628812685      3.65783941949674     -0.68987795159394
  H   0.37655168087479      4.00185404969705     -0.29694563207070
  H   -2.43243301810451      2.53627985611450      0.74540303864684
  H   -5.71090018247946      0.10714075280432     -0.25446651546180
  H   -5.29538936189108     -1.54767742070803     -0.58070047996376
  H   -1.73031057030399     -3.42225242181933      0.17025564999215
  H   -0.07905445105361     -2.75511577275518      0.18633245988488
