34
Coordinates from ORCA-job ./opt_b97-3c_parallel
  N   -5.64769776652741      0.14399036307299      0.90734991706725
  C   -4.52161104052083      0.29197178527690      0.64789475731241
  C   -3.17413085488183      0.46862595907636      0.33791660973516
  C   -2.55936271872684      1.69547000513567     -0.00768669876690
  N   -3.19746842114986      2.86167036920756     -0.13738786147078
  C   -1.16857117996721      1.45545940323445     -0.18909211947394
  C   -0.14512759966023      2.29270558455193     -0.54257410807524
  C   1.16889558341678      1.81493268026533     -0.52180968286473
  C   2.16311963491001      2.67984049345882     -1.03344529660637
  N   2.89383481306420      3.42138278088607     -1.54932675590651
  C   1.47115893849178      0.48709171167880     -0.08808890392660
  C   2.76060644423536      0.17323732051586      0.41001656527404
  C   3.62766311152899      1.23930775567777      0.76594066061466
  N   4.36939585070163      2.04336643771628      1.15827458986768
  C   3.26320143350841     -1.07764922877406      0.81586665488740
  C   2.77145947553100     -2.34399331077354      0.68709795823432
  C   1.60321865206168     -2.74355615843243      0.00782794367035
  N   1.47960729878721     -4.07292977467866     -0.24104850920810
  C   0.56186325095252     -1.87991187457794     -0.38992430942676
  C   -0.40567344488980     -2.47239235168277     -1.21409377082565
  N   -1.19403035829184     -3.04726340662564     -1.85618582694842
  C   0.37305659578543     -0.47060298326115     -0.08965298864812
  C   -0.91225537976605      0.05127055465160      0.01360925889432
  C   -2.18783272734351     -0.55104054818749      0.34440268285960
  N   -2.45160036707390     -1.80067787475763      0.72794425684153
  H   -4.17951785710233      2.93369684558125      0.06084743949731
  H   -2.69853420944912      3.71297761008331     -0.31365133112181
  H   -0.31193108275175      3.32113253837795     -0.83284549346350
  H   4.22614740549960     -1.01685068454891      1.30607362794215
  H   3.39513285187747     -3.14241142800905      1.06800422715800
  H   2.30066949791645     -4.64773785754157     -0.19298199622819
  H   0.75081736518850     -4.40117721873976     -0.85206532044434
  H   -1.83902417471360     -2.55571404019665      0.48228959970831
  H   -3.41017615904090     -2.05625374036171      0.89955610094158
