26
Coordinates from ORCA-job ./opt_b97-3c_parallel
  N   -3.50733366500130     -2.21134139527443     -0.01482055437420
  C   -2.80340349222992     -1.03064192376138     -0.01138276001754
  C   -3.55778054800884      0.15463860819224     -0.08088773492646
  C   -3.07443033225789      1.44598172205254     -0.11811170395913
  N   -1.85985342206179      1.96626268072707     -0.06439379311058
  C   -0.67305290331498      1.33067805984417     -0.00680268860297
  C   0.43027825891341      2.20234119657950      0.08132589471615
  C   1.74434711852713      1.77424550420046      0.09968957543665
  C   2.01558547647190      0.42253467078857      0.02036474783315
  C   3.19461997196287     -0.36006881729520     -0.01979709149769
  N   4.48830382138147      0.04874904439942      0.07267557448289
  N   2.90703716123371     -1.68635769172656     -0.11619203854627
  C   1.56924093563631     -1.78186083193687     -0.13963168217778
  C   0.93090582214606     -0.52175162779665     -0.06079831084163
  C   -0.42272056753235     -0.12572858581630     -0.03429566638893
  C   -1.41595851363014     -1.11372306117484      0.00716658927207
  H   -4.47132309225061     -2.17608318510194      0.26446859874136
  H   -3.02699629031876     -3.04225857070224      0.28167104302192
  H   -4.63581635961617      0.05072112690870     -0.12202047650149
  H   -3.84839384244716      2.20825781212143     -0.19077021216802
  H   0.19362765950248      3.25481142738757      0.12080198458108
  H   2.53872732501937      2.50887668015828      0.17108779729562
  H   4.70537406866362      0.99157925180140     -0.19689862174786
  H   5.17036137498642     -0.63816187914187     -0.20216409837073
  H   1.11043093451288     -2.75545078970545     -0.23392316923664
  H   -1.03300004958768     -2.12611717822758      0.05835137228703
