29
Coordinates from ORCA-job ./opt_b97-3c_parallel
  N   2.72006682567485     -2.94102313174439      0.16139096799399
  C   2.36561269760589     -1.82983695831806      0.09999040452757
  C   2.02195411391201     -0.48356232348063      0.03212282924007
  C   2.99966533932169      0.54660844322429      0.07018319426550
  N   4.34519536838331      0.33283597601686      0.06321184365898
  C   2.35365095087897      1.79828388944673      0.05659525551606
  C   0.98020044845365      1.56982141610971      0.02040536770807
  C   -0.09081979028674      2.45385604810657     -0.07619721521494
  C   -1.39579082565690      2.00530664159643     -0.09569080009823
  N   -2.44895767622776      2.93056274718233     -0.13513732358881
  C   -1.68905868951741      0.60765668711288      0.00879040780064
  C   -3.01038806297269      0.26294309690533      0.25733542476757
  C   -3.67492728592462     -0.96362065672124      0.32253127177417
  C   -3.17981689123128     -2.21800077155133      0.05125460390173
  C   -1.85933291098053     -2.55305744038736     -0.25037887267965
  C   -0.74639130893783     -1.74378547143566     -0.26290567580620
  C   -0.56656555091600     -0.35865306396537     -0.06680295707610
  C   0.73403281484270      0.14065877178418      0.00260736241815
  H   4.65838831659088     -0.59534796977932      0.29521277094381
  H   4.92839095956324      1.06501761346812      0.42720410711242
  H   2.84352576403654      2.75950956262729      0.05598822985699
  H   0.10462565425948      3.51844287161125     -0.14555691797424
  H   -2.12298646499570      3.87894375623175     -0.23082067945471
  H   -3.13517023164927      2.73869044326452     -0.84899746440592
  H   -3.65045885610201      1.11076888545793      0.46602804336205
  H   -4.72497322367249     -0.90501407047582      0.58143008187790
  H   -3.88703587348796     -3.03836968299639      0.08757870583496
  H   -1.66949313818194     -3.59986010730944     -0.45219255767070
  H   0.17256566331790     -2.27962432058081     -0.45336973749085
