24
Coordinates from ORCA-job ./opt_b97-3c_parallel
  N   0.33500838134609      3.33055241816174     -0.08545805191435
  C   -0.19322135529535      2.04261524262267     -0.07064082719807
  C   -1.56836470119504      1.85914623402629     -0.10344858976452
  C   -2.08265830997908      0.57422965755936     -0.04090432289092
  N   -3.36272732124951      0.14042481237213     -0.03559646135535
  C   -3.22617321522866     -1.20000843541649      0.02081725635038
  N   -1.97307726774222     -1.69085678898173      0.05501870478356
  C   -1.19842169684274     -0.56395837474334      0.00782347573381
  C   0.18365916484138     -0.41907602412162     -0.01215386914995
  C   1.02558386298267     -1.59672908170667     -0.00229649799105
  N   0.43212495306403     -2.76710884068097      0.18481128840766
  N   2.34717153525026     -1.68233985535483     -0.27447177214033
  C   3.21164251588028     -0.70556061542126     -0.22042527399058
  N   3.14631558573883      0.53386102622155      0.27803354596115
  C   2.03449392914177      1.22452082369723      0.39714517018192
  C   0.70398160514339      0.92977867799790      0.03438604967806
  H   -0.35807861795563      4.05209737649140     -0.19365604742549
  H   1.10550036417632      3.47845188685699     -0.71522851970327
  H   -2.23526674824334      2.70840427044243     -0.18649113676764
  H   -4.08459971449163     -1.85515718294765      0.04562280371796
  H   0.99430772463559     -3.59294053695957      0.06560675040197
  H   -0.59946019251035     -2.80099332998501      0.23186601612529
  H   4.20116316936235     -0.97222510510496     -0.58240835770891
  H   2.17638007257062      2.20610518807432      0.84068138765870
