34
Coordinates from ORCA-job ./opt_b97-3c_parallel
  N   -6.07722447483849     -1.70449333586810      0.57237740700610
  C   -5.09625111067898     -1.10738129635962      0.38100479725836
  C   -3.87403696005306     -0.46028164586786      0.16952865196888
  C   -3.65151749703401      0.91133252151588     -0.06744488018328
  C   -2.27507324791653      1.11724082451086     -0.14454888684266
  C   -1.47951705221677      2.25461945061975     -0.34211696800236
  N   -1.98498142142074      3.47488200641169     -0.61372732413197
  N   -0.14407979388143      2.19203782862346     -0.27481703722266
  C   0.50272952475723      1.03765970334622     -0.10858650534911
  C   1.89318318953781      1.20134897771022      0.10642710467310
  C   2.30588923962187      2.55363649282445      0.22252135661619
  N   2.79034368705946      3.60315464213275      0.35099961854825
  C   2.94835595724859      0.25476334888989      0.23666094853846
  N   4.16109382486902      0.74264667128949      0.57614012402234
  C   2.86889384089211     -1.14336517316503      0.01155760691487
  C   4.08542638037684     -1.84774051594448      0.06885940912974
  N   5.09219866157409     -2.43328201963439      0.10543870359292
  C   1.72012880783775     -1.91295313317989     -0.30115185097917
  N   1.91906035494109     -3.23911177260507     -0.55878331182898
  C   0.38985270000632     -1.49304461863448     -0.29159244365223
  C   -0.20671395155425     -0.25185778949330     -0.09761032151939
  C   -1.60452996116947     -0.14494731182807      0.01423585972582
  C   -2.61744452949349     -1.12127334437255      0.23206130889291
  N   -2.46243993055400     -2.46002979428227      0.46491059689261
  H   -4.43526918174784      1.64682028702682     -0.15048158395151
  H   -2.96482927203787      3.65815945080207     -0.50977774592159
  H   -1.35120879220433      4.25375337768227     -0.57107663206196
  H   4.97231892125304      0.15090113127836      0.56700767843154
  H   4.30972367241640      1.73517489167566      0.63263393596498
  H   1.16980101790210     -3.76251730650751     -0.97179197142508
  H   2.84486429212723     -3.57753563584851     -0.75471175503638
  H   -0.30797606862862     -2.28839248728798     -0.51552700315093
  H   -3.29033116152525     -2.92854163504255      0.80187913502400
  H   -1.63483287436673     -2.72727139621777      0.97403431185618
