31
Coordinates from ORCA-job ./opt_b97-3c_parallel
  N   -3.61787238439957      1.98268452515270     -0.61171170069069
  C   -3.11319268474373      0.95131894708314     -0.40004577287732
  C   -2.49327294031696     -0.26675491610834     -0.12299047619512
  C   -3.16456390564060     -1.51512963519482     -0.17242385583668
  C   -2.25265038801396     -2.54770587530086     -0.03327911699703
  C   -0.97082087624507     -1.97404469693108      0.07348941964133
  C   0.29288007688618     -2.54256030524128      0.06748627566404
  C   1.43017830695131     -1.76726192012745      0.02864374304281
  N   2.69221419158261     -2.43956189221592     -0.10376777964126
  C   1.36202041647246     -0.33857309467195      0.09000456602748
  C   2.59820616982703      0.42628113735188      0.09799105565726
  N   3.70443591206537     -0.13847135481126      0.63480960046232
  C   2.76961681146326      1.68786291322543     -0.48938505219920
  C   1.83339226996729      2.68093776942571     -0.68279346122087
  C   0.54282256725782      2.72969297382834     -0.20223163230034
  C   -0.15145264736838      1.69030487443708      0.41470068381444
  N   -1.15112705578051      2.01373733266869      1.25672664720704
  C   0.06013873569500      0.27291080287106      0.14962214526504
  C   -1.09142249370322     -0.53805148722830      0.05448310795748
  H   -4.22686343245666     -1.61637030087288     -0.33064944683434
  H   -2.47205617272746     -3.60326786394411     -0.05935250006484
  H   0.39094407998229     -3.62143586361666      0.01061580349742
  H   3.08881141293613     -2.28901665003498     -1.02450882826558
  H   2.56011232573638     -3.43474815818474      0.00281965720521
  H   4.58646939888853      0.32081273901783      0.48775720619502
  H   3.70998138360491     -1.15222617137136      0.74129980721133
  H   3.79543172674014      1.95282338040764     -0.72001379707027
  H   2.19964431373102      3.58795814500809     -1.14852694442671
  H   0.04964664491592      3.69433048430587     -0.21428957768401
  H   -1.78619778022529      1.29224594235942      1.55026917354058
  H   -1.55818203828220      2.93219225861307      1.20423793651546
