32
Coordinates from ORCA-job ./opt_b97-3c_parallel
  N   5.02535126683504     -2.24840925608798      0.77395446607682
  C   4.00600334693188     -1.72646682631608      0.56999681284689
  C   2.82952203034047     -1.00662274586765      0.32477097690266
  C   1.52108900893964     -1.48022529621975      0.29510158850034
  C   0.64418999093155     -0.38539452379590      0.09403464819848
  C   1.46978252459064      0.79683304634273     -0.01822964328716
  C   2.81028436988965      0.41584188964769      0.13953801031152
  N   3.91821867638948      1.21403196408868      0.12793260844666
  C   0.89697485660796      2.04486450292782     -0.25008650290492
  N   1.65845003634099      3.14619887121492     -0.50030691733088
  C   -0.51036392339790      2.14328859286894     -0.14311258344786
  C   -1.07203756724181      3.42481258757312     -0.28800981057047
  N   -1.45952875309444      4.51342515689680     -0.42892841452404
  C   -1.34512782368586      1.01714239153989      0.09817500811080
  C   -2.67635296247153      1.26244138700809      0.43525351747190
  C   -3.71026628867985      0.38215579094611      0.71949836726289
  N   -3.85504635158643     -0.91211215201798      0.53967725192902
  C   -2.93390067215877     -1.71772484579918     -0.01016535327658
  N   -3.44876870069519     -2.91289987308443     -0.35944567782747
  C   -1.53547884292931     -1.49235506696040     -0.21705324098897
  C   -0.88190260899965     -2.61602269165075     -0.76682538447743
  N   -0.48043402745396     -3.59586527166436     -1.25174635776774
  C   -0.75548163205897     -0.32338240918709      0.03048871196285
  H   1.25251023226875     -2.50677908138537      0.46008870265158
  H   3.81337377166040      2.12903583136947      0.53720358616749
  H   4.77597952828849      0.76244951440767      0.40698215916307
  H   2.52399114892955      2.99426941213165     -0.99079150956467
  H   1.17351438351791      3.98622526244311     -0.77494468255815
  H   -2.93763348604132      2.30228963459788      0.57972402175608
  H   -4.59554937971322      0.85021497056027      1.14173718708166
  H   -4.41997574827370     -3.06632617513316     -0.15974565619629
  H   -2.89488273167868     -3.65497720249373     -0.74705462281837
