27
Coordinates from ORCA-job ./opt_b97-3c_parallel
  N   -0.77257148732958      4.36540716178401     -0.50871555071044
  C   -0.46850721382718      3.25435808821516     -0.36179705452225
  C   -0.00107098711097      1.92760853303712     -0.21282713957098
  C   1.37474564858522      1.69355983202438     -0.22535873562318
  C   1.84756596525835      0.43002604340106      0.01716358430130
  C   3.16461417294573     -0.08266674299845      0.13116583202850
  N   4.31582187832680      0.61900277791092      0.06246046845087
  C   3.06436887141771     -1.47838291269767      0.39183048970776
  C   1.73711133425902     -1.84053103653859      0.40713933514142
  C   0.92719437704440     -0.68251323186755      0.17552264947199
  C   -0.44431365539760     -0.50377420138792      0.05188051067824
  C   -1.34039122624098     -1.60397353549877     -0.22413554153186
  C   -0.77806333333387     -2.82876796858922     -0.66696671396431
  N   -0.38577078450176     -3.85595806913457     -1.04446981822718
  C   -2.72894552664263     -1.63754374957387     -0.17792617923871
  C   -3.62623120920772     -0.64232542734361      0.17821437945561
  C   -3.30306240443004      0.66963075086591      0.48077202332542
  N   -2.16777586047232      1.32100960153071      0.32590856452652
  C   -0.94045349036083      0.88702464837528      0.04098901238436
  H   2.03686437382513      2.53620131405235     -0.37959501614996
  H   5.18459231768202      0.12620219005275     -0.03640233630585
  H   4.30922106666873      1.55727403091426     -0.29418023896911
  H   3.90105254438992     -2.14030884698134      0.55293662038613
  H   1.38196480195581     -2.83707322778767      0.59672875581639
  H   -3.16470135274318     -2.59483616103074     -0.43429977625080
  H   -4.67133666862860     -0.91595857023379      0.23706522137128
  H   -4.10904692713161      1.29482397729982      0.85608554371882
