28
Coordinates from ORCA-job ./opt_b97-3c_parallel
  N   -1.53571344976825      2.76861804523723      1.23507230530401
  C   -1.47547153638182      1.69975246755871      0.76689590470393
  C   -1.47217999305379      0.42420605217468      0.19290434135606
  C   -2.77995896330900     -0.13826090534187     -0.00092211184423
  N   -3.84494499222866      0.64207935177050      0.27700106775500
  N   -3.11673751364146     -1.33724366897694     -0.46544531301013
  C   -2.27109692696851     -2.34840877726511     -0.64830051240452
  N   -1.00997393847265     -2.56113709795175     -0.37329157890508
  C   -0.05830183859602     -1.66087731396392     -0.02845477989423
  C   1.17610999584703     -2.20920076529415      0.28632510023193
  C   2.35128198606544     -1.45516741633517      0.39564543450498
  N   3.52374477023924     -2.06175539176526      0.72608063056663
  C   2.26154978445923     -0.08551495322512      0.12604494459683
  C   3.22319404606450      0.90945831306688     -0.08910786082562
  N   2.68174645990385      2.07882466428268     -0.45673875292384
  C   1.33641992797606      1.89709005912476     -0.46437079131834
  N   0.56533822744324      2.89570486509398     -0.92614216245769
  C   0.98449669314609      0.53423675018536     -0.10353452021464
  C   -0.20676918976613     -0.19162135604171     -0.03350984808757
  H   -3.76056699372169      1.55938674755922      0.67501143698124
  H   -4.75259730735763      0.22756334780159      0.17128769444966
  H   -2.76272177602259     -3.21653470878675     -1.08165519410257
  H   1.21567913928858     -3.28787803597659      0.35172279883813
  H   4.38479004360325     -1.57453914600653      0.55842756457399
  H   3.58065047007406     -3.06060020227903      0.63954817411466
  H   4.29731291174252      0.82517601798265      0.00573125590997
  H   -0.36529743440322      3.02478268880353     -0.56068674629279
  H   1.07371650093834      3.74679292336829     -1.10752439490583
