24
Coordinates from ORCA-job ./opt_b97-3c_parallel
  N   3.07701109917062     -2.60696050516193      0.09962050004531
  C   2.37255282189131     -1.68345910909379      0.15161775911347
  C   1.68853844017733     -0.44304420173171      0.16745414906973
  C   2.50310716147343      0.71745130116323     -0.11195585216329
  N   3.72946880280895      0.50487551329712     -0.61815802763360
  N   2.21421046168479      1.98782273331653      0.13006608442287
  C   1.02342644118222      2.45939854862097      0.48724387528808
  N   -0.19411814547611      1.98250378866225      0.41592777611725
  C   -0.57242847776340      0.71042505023331      0.20805560082560
  C   0.29939616132056     -0.49187629308805      0.32168431314664
  N   -0.20095082614604     -1.73704607398117      0.46198953167969
  C   -1.50246776549047     -1.93788154716932      0.30691993864584
  C   -2.38951231175989     -0.92412716557656     -0.02370670288585
  C   -3.77819202781470     -0.88620987923582     -0.21507020281506
  C   -4.15937402738336      0.46501554977615     -0.36418397710393
  C   -3.03613711901184      1.27474811665320     -0.24994305617217
  C   -1.90794978052798      0.43353024270742     -0.04984256265559
  H   4.34163113192376      1.29700191207469     -0.69610480773894
  H   4.10350807471094     -0.41940633878669     -0.74078900288584
  H   1.06892123671222      3.48696426775162      0.83752698402759
  H   -1.84341340830322     -2.95812598483255      0.45044632127481
  H   -4.44087208626352     -1.73786262823904     -0.22624400264704
  H   -5.16713149009134      0.81189253599898     -0.53098019638779
  H   -3.00783253152456      2.35062657134213     -0.29871603776816
