29
Coordinates from ORCA-job ./opt_b97-3c_parallel
  N   -1.66745147853128      3.71785950461178     -0.00084861051580
  C   -1.08811070278665      2.70906876456297      0.02859469988316
  C   -0.23947009337332      1.58300084658510      0.05292888624045
  C   1.16937641012007      1.82633639869988      0.04421232085243
  N   1.62609215262544      3.10301130154128      0.10600849752174
  C   2.00672535092174      0.72095777699588      0.02246016517224
  C   3.41282062594531      0.57896641890417      0.03060279449692
  C   3.74380929459245     -0.77072037143666      0.02082250184587
  C   2.54563076363666     -1.52035424103542      0.00727050448932
  N   2.38924957246063     -2.84802599130304     -0.01286070110333
  C   1.43949210453580     -0.59629238811872      0.00688563965585
  C   0.07964886752376     -0.87794049730565      0.03547017928660
  N   -0.27434631019352     -2.18615212189284      0.05646898080273
  C   -1.50586270899283     -2.67928354746862      0.08476391938764
  C   -2.74826669263701     -2.09222021800186      0.07155979249340
  C   -3.00979206858570     -0.70417673275201      0.01854968706448
  N   -4.31360910736790     -0.31417907723879      0.00964704750163
  N   -2.16043846528083      0.30917875773078      0.00678607798118
  C   -0.82348102129037      0.29794478757585      0.03924532428349
  H   2.58101023364925      3.28339333573371     -0.14021604234848
  H   0.97938287830592      3.85428776784737     -0.06557734060300
  H   4.13364875561962      1.38299033629661      0.05611474557779
  H   4.74068762438519     -1.18234839061540      0.02250616484548
  H   3.16996254779745     -3.47161358760334      0.07722060196468
  H   1.42568779471916     -3.17158335746942      0.04294163010187
  H   -1.51933352433246     -3.76663375576558      0.12020591394172
  H   -3.59920835775413     -2.76138796241044      0.10480937859654
  H   -4.48703707493393      0.66028587421908     -0.16497227245903
  H   -5.03941481067878     -0.96758461208678     -0.21718448295761
