26
Coordinates from ORCA-job ./opt_b97-3c_parallel
  N   -3.44840735230424     -2.20106521344517      0.28622340849486
  C   -2.95728424687360     -1.14610474749658      0.20823944480515
  C   -2.34936048910329      0.10288552844990      0.08260951401774
  C   -3.01868767589843      1.34337099637626      0.13490059220672
  N   -2.19894716734298      2.40434169280750      0.09010665665026
  C   -0.94954393489458      1.88871423671865      0.02819334975336
  C   0.24259665393820      2.59355009796688      0.00889089290708
  C   1.45430883792093      1.92367272607288     -0.01855659714092
  N   2.64987418165544      2.64272999237644     -0.03414455925479
  C   1.49107237202092      0.49695480642527     -0.06300528228316
  C   2.75609923223610     -0.10714035076100     -0.26575711461122
  N   3.19852034855635     -1.30049912072664      0.05482050020617
  C   2.41098837751234     -2.26226343844595      0.55112024306780
  N   1.16299698698053     -2.51595765311051      0.29048570782260
  C   0.30184126961323     -1.67730089578067     -0.30059376959836
  N   -0.60544498434111     -2.24268533995451     -1.08597183813336
  C   0.25082648683163     -0.25027854619999     -0.05836663137010
  C   -0.95683056924833      0.43697266123642      0.00923461991266
  H   -4.08810313074725      1.46812013009303      0.22018031555944
  H   0.21120921665087      3.67497317522136      0.05092230295387
  H   3.35050342690810      2.32821093030797      0.61669300387154
  H   2.51516269340362      3.63646428816717      0.05529825305359
  H   3.51092286824600      0.53750964214091     -0.70621224540757
  H   2.91732305341600     -2.99083828991575      1.17644662150323
  H   -0.71386533845241     -3.24293470807442     -1.06249263079546
  H   -1.36328543348406     -1.70752123414951     -1.47058547209110
