33
Coordinates from ORCA-job ./opt_b97-3c_parallel
  N   -5.33389489054366     -1.26915329542651     -1.03363404724677
  C   -4.35606769787646     -0.72019628443147     -0.71902751283111
  C   -3.14670384648761     -0.12246825932088     -0.35169541906534
  C   -2.92817234479769      1.22850218017815     -0.00406511415986
  C   -1.57781870353342      1.39980988781207      0.25147368148444
  C   -0.80781112743364      2.53668005619248      0.56289595511996
  N   -1.37614612940313      3.70832371221893      0.94794589170326
  N   0.51489674097067      2.51973001841208      0.48945261892100
  C   1.17913194212855      1.37641040227817      0.19881703343130
  C   2.52092280696238      1.57536391882925     -0.09722650289436
  C   3.52499347216560      0.69413930382299     -0.51420927359533
  N   4.70960178461750      1.28183721223337     -0.90252645419538
  C   3.49070665665286     -0.69693936372697     -0.50826474290397
  C   2.50895957534065     -1.53233039327177      0.00836930362579
  N   2.83353321085852     -2.86087226103255      0.09407609132856
  C   1.18801307190829     -1.15961443946801      0.39766349270889
  C   0.48807660223389     -2.15679291908674      1.08869399394220
  N   -0.05946652271577     -3.02294153700509      1.64952826875835
  C   0.49275928591613      0.07284266849480      0.17905016246563
  C   -0.89596938536877      0.13717252499503      0.08264749034244
  C   -1.91483161179957     -0.82209118925694     -0.29174253389378
  N   -1.77563405796231     -2.10867445911553     -0.69485869136847
  H   -3.70563655315978      1.97507384482850      0.03384952346416
  H   -0.78857237280045      4.52248312268738      0.90323990505559
  H   -2.35709931911172      3.85154924029725      0.79714627395430
  H   2.79709473255254      2.62183003106830     -0.06860717321446
  H   5.34879829072350      0.72220980813974     -1.43839326133855
  H   4.66542523808230      2.23965326480231     -1.20194096187179
  H   4.38723685845284     -1.19629873425064     -0.85768279213457
  H   2.21494968188398     -3.47602404665565      0.59425951441509
  H   3.80608336436208     -3.09667362614511      0.16916987353824
  H   -1.15030727493854     -2.70863731646167     -0.17823938356975
  H   -2.64050449607936     -2.56718186713523     -0.93965025287569
