29
Coordinates from ORCA-job ./opt_b97-3c_parallel
  N   3.89142705433661      2.76489920520949      0.07361667377275
  C   3.06269725137937      1.94927456164857      0.08091249985126
  C   2.12377070615678      0.89082344424505      0.06461541131300
  C   0.78870983677923      1.19410839512545      0.18859034603260
  C   -0.36356002003414      0.39488618238235      0.09377475441682
  C   -0.41608436428200     -1.04423324252279      0.00406610945928
  C   -1.66470079645921     -1.67053034448115     -0.23081625341038
  N   -1.75229002895771     -3.08334350671815     -0.36849271949650
  C   -2.84842662466340     -0.93809886650957     -0.29866854503954
  C   -2.85255952149373      0.43102913579981     -0.11593374551465
  C   -3.81713336306912      1.44758861783856     -0.11523980759073
  C   -3.09537039898910      2.62772918971144      0.07446170046615
  N   -1.75286885125941      2.44092983209525      0.18816466479745
  C   -1.58061147157901      1.11124032707627      0.08150787417928
  C   0.75394294539129     -1.82581711814371      0.34310371548770
  N   0.57332066292466     -2.99971951749914      0.97562956116646
  N   2.03434179986695     -1.56506841945092      0.09176323178694
  C   2.65000894706469     -0.43148058286011     -0.14996197181984
  N   3.91799741440314     -0.54001420229712     -0.59745925336354
  H   0.55460296367760      2.24424445336710      0.31358120262918
  H   -2.70205888339260     -3.36880151369227     -0.55282689380574
  H   -1.16660697212489     -3.43555386652108     -1.11405688034679
  H   -3.77355271154879     -1.46702112117941     -0.50453297427891
  H   -4.88326701313239      1.34581903464368     -0.23668107633356
  H   -3.50159747890958      3.62760050374271      0.13741361232825
  H   1.37571315108148     -3.59880893329060      1.06055670462402
  H   -0.35382799460996     -3.40761747055577      0.99162485775866
  H   4.51030650958399      0.26766462733445     -0.67422466669521
  H   4.34361736645868     -1.44881452459769     -0.58924851657606
