25
Coordinates from ORCA-job ./opt_b97-3c_parallel
  N   5.10998592931237      0.20394281987036      0.15814157852134
  C   3.96641173716782     -0.00975761947557      0.11910988499400
  C   2.56972370409598     -0.19567511878862      0.06201061110952
  C   2.09701935080961     -1.50843940340129      0.12375819086142
  N   0.88937699270162     -2.02158803035932      0.04896868222648
  C   -0.28482363613941     -1.37603695698593     -0.03005723879360
  C   -1.40387196490086     -2.20955652437476     -0.11622942186863
  C   -2.70695219632775     -1.73225481905299     -0.10168622088956
  C   -2.93850188046230     -0.37276295419507     -0.00179258259302
  C   -4.12599655173771      0.38992476644643      0.03379832733622
  C   -3.77160302251772      1.74506075548546      0.11540601989473
  C   -2.38029728387436      1.84928715998326      0.12499473115236
  C   -1.83049028693574      0.54214859167325      0.05841405963462
  C   -0.49810137866518      0.11431626791279     -0.00154996210573
  N   0.43598414602288      1.06188805508024     -0.05985665370340
  C   1.75435567570837      0.97586204982937     -0.07779233996059
  N   2.38283505403290      2.16046617164285     -0.22800655534757
  H   2.87675385434240     -2.25639511744298      0.23812830885148
  H   -1.20519463823821     -3.27016109618219     -0.15410291777849
  H   -3.53292974067364     -2.43080366949218     -0.15672237654444
  H   -5.12936892417038     -0.00635663456991     -0.00100771469284
  H   -4.46216646048200      2.57234550552726      0.16140582606808
  H   -1.80779767723275      2.76060378613508      0.17933408182143
  H   3.38316348057562      2.24318093432706     -0.22058862791175
  H   1.81731073008846      2.98808867210739     -0.26804533618206
