27
Coordinates from ORCA-job ./opt_b97-3c_parallel
  N   4.53917006450052     -1.31539832379243      0.34431033845514
  C   3.33952042087306     -0.67516607658482      0.23283782722114
  C   2.06580134784267     -1.26199329423140      0.14327104442997
  C   1.16489917562452     -0.18492314591987      0.02958538183583
  C   2.02708627483876      1.00609519696871      0.03973302614842
  C   1.47442877471709      2.27801821936262     -0.07020592247179
  C   0.10845079482656      2.40789596443047     -0.15356465260513
  C   -0.76850815428283      1.29997659358131     -0.12474887002991
  C   -2.13602419418403      1.63117443631522     -0.13324670494169
  N   -3.23050246202120      0.93600782601593      0.07366584534948
  C   -3.23699667367464     -0.40210407368505      0.22946750228876
  N   -4.37423640158585     -0.87350174721978      0.78571409472588
  N   -2.36967116873751     -1.33357127175820     -0.14779465535312
  C   -1.07147567400101     -1.17344801847923     -0.36941947426182
  N   -0.47963836854532     -2.26595797785506     -0.88791971119072
  C   -0.22518004689588     -0.03803671740684     -0.08687518010861
  N   3.32209816849559      0.68414019145626      0.15010762792927
  H   4.53349718621666     -2.23704580589193      0.74384865358514
  H   5.29509226929065     -0.72900274475733      0.65632907988119
  H   1.85157829295961     -2.30879423186060      0.27856497121922
  H   2.12274097791522      3.14369076050461     -0.08060221372186
  H   -0.32858233261509      3.39582756321917     -0.20920683015612
  H   -2.33450827321136      2.68969689921676     -0.28290614036989
  H   -5.14438606901282     -0.24012878633752      0.89520161805568
  H   -4.54272272912409     -1.86210449263065      0.77990685526002
  H   0.45398187795952     -2.20404125359135     -1.25721174523951
  H   -1.07451267566883     -3.02407880086889     -1.16963525163502
