32
Coordinates from ORCA-job ./opt_b97-3c_parallel
  N   -5.39661406236887     -2.01292573831842      0.74446246851128
  C   -4.44324255852736     -1.39333542844969      0.50384524482459
  C   -3.33602502246166     -0.56712284124289      0.18741334956610
  C   -2.09442981812942     -1.19569894330824      0.12880289294680
  C   -0.79202826440282     -0.75902175359212     -0.09505671182762
  C   0.20957666027973     -1.78501056031732     -0.19516813091407
  N   -0.17179398500038     -3.10066331147833     -0.32608889105134
  C   1.56730644587781     -1.45234079398575     -0.09789617585736
  C   2.50688481787652     -2.50360666974387     -0.20315540709086
  N   3.18182466740383     -3.44229548542199     -0.31205831168814
  C   1.96161153032504     -0.11466785102787      0.05589942186337
  C   3.22963763602584      0.47785663971085      0.18018408787777
  C   4.47348898690928     -0.16206314324765      0.27870777119544
  N   5.52091283659144     -0.65773996592839      0.36872316872988
  C   3.04493178127157      1.88111435653843      0.20083888057653
  C   1.69103955598882      2.18215465300520      0.08564148149609
  C   1.17164845573361      3.48149950361521      0.10455883918811
  N   0.72654556721430      4.55762424958757      0.11444612770192
  C   0.97027831302834      0.93799462591551     -0.00506660372481
  C   -0.38631827945473      0.63614051787704     -0.12201820866362
  C   -1.30274855269304      1.70378774081481     -0.30806191422836
  C   -2.66117887835385      1.78105787680471     -0.33348036756783
  C   -3.63859010009419      0.79283150572780     -0.08032696942761
  N   -4.92348335790112      1.18282688459529     -0.08515782199932
  H   -2.16338302527763     -2.25362833639529      0.34362111116046
  H   -0.89912369750346     -3.29463730442841     -0.99286577325171
  H   0.58421728793405     -3.76399098254511     -0.39385041509174
  H   3.83585015848077      2.60539664666050      0.30156851816156
  H   -0.82933360273930      2.66015500047264     -0.46756737373532
  H   -3.05681208313114      2.77100646088856     -0.52838698334645
  H   -5.16709741408699      2.14624008379991     -0.22201617101251
  H   -5.66882466571383      0.54040751061759      0.12386775027848
