28
Coordinates from ORCA-job ./opt_b97-3c_parallel
  N   -3.49583372645977     -3.03827449579557     -0.00545097368614
  C   -2.90809070712783     -2.03371006187967     -0.00301812797714
  C   -2.26851660962857     -0.77214011761595     -0.00061297536674
  C   -0.87218521414233     -0.78828469875410     -0.00083162741630
  C   0.10677856330897      0.19520401442502     -0.00029730996783
  C   -0.15211176520871      1.63625979118133     -0.00474150379470
  C   -1.42971589648771      2.21153250384153     -0.00223629760873
  C   -2.70326060526879      1.69500502016606      0.00137998383459
  C   -3.13415128865390      0.35924999571884      0.00216337977746
  N   -4.46561577571039      0.13665168183270      0.00611352743932
  C   0.93136678529702      2.52676869959405     -0.00814659635815
  C   2.25618533312584      2.11870847145099     -0.00830654657875
  C   2.55033286629607      0.76714348909810     -0.00232987563785
  N   3.76024051062962      0.17940834501844     -0.00486660033590
  C   3.49527729349851     -1.15016886262722     -0.00432109751280
  N   4.51986995610487     -2.04126208575494      0.04109285071114
  C   2.11084493933110     -1.45134498036739     -0.00108088106261
  C   1.46603540525960     -0.22078345721518     -0.00260761077491
  H   -0.47482083945443     -1.79466415597112     -0.00132679552666
  H   -1.41076495924329      3.29594783198572     -0.00356989489649
  H   -3.49941484352626      2.43031788544085      0.00345001148478
  H   -5.11233404764833      0.90182226818890      0.00447868900423
  H   -4.84134457746257     -0.79528043782828      0.00369123259148
  H   0.71321275051961      3.58668150894377     -0.01098036305308
  H   3.05875861710312      2.84383520128578     -0.00948115393600
  H   5.42543989134674     -1.66942864847835     -0.18936500740231
  H   4.34654872653109     -2.97967475037295     -0.27035577390151
  H   1.68212446327072     -2.44068453501135      0.01019968965163
