25
Coordinates from ORCA-job ./opt_b97-3c_parallel
  N   -5.62352540390000     -0.25978600516078      0.00182064594789
  C   -4.46407512291321     -0.18315993432449      0.00128481569092
  C   -3.05126927981216     -0.07709524235763      0.00050519686202
  C   -2.30843266979133     -1.25824746141892      0.00212531320149
  C   -0.94053425219248     -1.41184873598664      0.00151070745517
  C   0.09475963952838     -0.46640135268183     -0.00039523010962
  C   -0.11292849095556      1.00357164338575     -0.00112068025672
  C   0.99394054600222      1.84048147449050     -0.00071346135738
  C   2.32218152407800      1.38668358571942     -0.00035886376123
  N   3.33603048460737      2.27070979782235      0.00027385104049
  C   2.54733479403067     -0.00212583991197     -0.00053833526528
  C   3.68089125580822     -0.80589111827892     -0.00067380969290
  N   3.35038136332840     -2.13268022216865     -0.00116667141961
  C   2.01892730060957     -2.19725028798669     -0.00125608708324
  C   1.42452534179882     -0.90287244527605     -0.00091615914592
  N   -1.29245512832385      1.67329279339873     -0.00260000925513
  C   -2.52012184701719      1.23286846480473     -0.00223339936018
  H   -2.88401092168173     -2.17484972093161      0.00398718593454
  H   -0.60913483805315     -2.44114364437957      0.00292504268564
  H   0.78861572242109      2.90159737030185     -0.00119283960390
  H   4.29096435486317      1.96762345363399     -0.00126107389480
  H   3.16248475026122      3.25824805356098     -0.00112152982956
  H   4.72064377166494     -0.51267778712970     -0.00036508983041
  H   1.52184628861162     -3.15566914207381     -0.00183094592016
  H   -3.26640706667302      2.02304527974897     -0.00414035113210
