35
Coordinates from ORCA-job ./opt_b97-3c_parallel
  N   -4.84003019427370     -1.24587383862651     -1.08255210363794
  C   -3.78901229727787     -0.85981462290615     -0.75796523850759
  C   -2.52155000037869     -0.40616448104963     -0.34755158354644
  C   -2.48670162941055      0.90899279484455      0.18737542174029
  N   -3.66924146069357      1.45486135611843      0.55359560957373
  C   -1.33252640824401      1.70080723771003      0.29940974269465
  C   -1.54100172475850      3.02366940946719      0.73280816931535
  N   -1.74298463151751      4.11630749925278      1.08452551517240
  C   -0.00828236840377      1.39248341573459     -0.15175289637427
  N   0.76195901866056      2.43205574013861     -0.46913426671169
  C   0.60703906699202      0.08642834908702     -0.13578256493340
  C   -0.11052073491822     -1.16127079569249      0.05707045728533
  C   0.62674548161466     -2.30835886178515      0.46491463396422
  N   -0.03786709269319     -3.52246941892899      0.77156077896637
  C   2.00963920178699     -2.30811533039396      0.54174119717432
  C   2.73131465723626     -1.18684157348751      0.17263840204266
  C   4.08887766058616     -0.86896137295499      0.11663985912450
  C   4.13615568052728      0.48342617694312     -0.25189683522314
  N   5.24328132072673      1.26802726516794     -0.40102656365946
  N   2.90099340669957      1.02652625977068     -0.42265686719652
  C   2.01181640955524      0.02690731001395     -0.17435930012888
  C   -1.46369166145499     -1.34086698340663     -0.41691574032066
  N   -1.75920864140371     -2.52096947628545     -1.00826510500946
  H   -3.73796279354000      2.44343537191293      0.72056694503547
  H   -4.52611469133094      0.96502008071729      0.36818347257362
  H   1.78109025560481      2.26187524231376     -0.56440062794816
  H   0.40799194767100      3.36689084196904     -0.35242133344277
  H   0.59764617165813     -4.19726399080329      1.16759523995239
  H   -0.81594003052792     -3.39569849270509      1.40350302135551
  H   2.51976620020007     -3.19539461712409      0.89959199865348
  H   4.92540652536864     -1.51440834184838      0.32756076673643
  H   5.09705872336589      2.11517888973830     -0.92323500935268
  H   6.10327040974991      0.79665844982711     -0.61887202634024
  H   -2.72179755390107     -2.75527176634676     -1.18586447430746
  H   -1.13199769827721     -3.29670084607714     -0.84656131991876
