27
Coordinates from ORCA-job ./opt_b97-3c_parallel
  N   -4.47823896156153      1.09798807237447     -0.13562204219092
  C   -3.30676327862704      0.36881984405895     -0.05675148250048
  C   -3.41069098143284     -1.01815791354955     -0.04012985870156
  C   -2.36624100399969     -1.93524594044574     -0.01944704780386
  C   -1.00520897286372     -1.75207252702575     -0.00523474616094
  C   -0.21676576945093     -0.57972164890473     -0.01084825118012
  C   -0.76798014057366      0.78275740200395     -0.02595943931053
  C   -2.11905829660159      1.11875551918959     -0.05267370253572
  N   0.03674116944572      1.88863136504093     -0.01639553594085
  C   1.35221056285986      1.74242677154315     -0.00103042099923
  C   1.99135860079023      0.51843199274350      0.00065399983658
  C   3.34623444391177      0.12340060770315      0.00780151046037
  N   4.44767299741322      0.94701160608173      0.07456465475431
  C   3.37272790361817     -1.29234243281922      0.01998038419192
  C   2.07040048528105     -1.77747730600847      0.01391126916396
  C   1.17758887043878     -0.67934206695289     -0.00126438974118
  H   -4.43258134667427      2.05667671855424      0.16237993615071
  H   -5.31904062829284      0.63252604335766      0.15812747340128
  H   -4.41290148001726     -1.43075228574544     -0.05215478339749
  H   -2.68088594879132     -2.97280337468143     -0.00714646108561
  H   -0.43257163071347     -2.67023608106175      0.01348617892203
  H   -2.25421333341044      2.19382344612320     -0.07328849235973
  H   1.91729023009227      2.67237794532030      0.01451671939417
  H   5.30792935297517      0.54190843304117     -0.25451823890133
  H   4.31694922245428      1.88134795531873     -0.27477850673897
  H   4.26932521011204     -1.89462318581388      0.03463921709725
  H   1.80703196091802     -2.82345687124585      0.01112270007595
