30
Coordinates from ORCA-job ./opt_b97-3c_parallel
  N   5.04175825789644      0.18692119372196     -0.15200839646899
  C   3.89596553972465      0.39145582290848     -0.10498996882142
  C   2.55188980380266      0.75951304662879     -0.05903583896760
  C   2.08651664565723      2.12456814901034     -0.04498441129998
  N   2.88449934637982      3.20448843100705     -0.03157443485045
  N   0.75164172829348      2.22326592530559     -0.01248018489519
  C   0.29315043256029      0.94555411260707     -0.00718729692511
  C   1.38668853785538     -0.00807428653438     -0.03428551101122
  C   1.11365021958941     -1.37995919312988      0.03686042643137
  C   2.15194642117958     -2.33178246234350      0.13336037455231
  N   2.94587281509093     -3.17576399130539      0.22402565981069
  C   -0.21975101116836     -1.84023591456825      0.05604873099040
  N   -0.46157567495399     -3.20135888968141      0.10094031036443
  C   -1.30340765211492     -0.92112734097766     -0.02621513413702
  C   -2.58141936070545     -1.43941088867288     -0.24369897989910
  C   -3.82301964183667     -0.84516971069310     -0.26842505003470
  C   -4.14200956663395      0.49555476454676      0.00435023518811
  N   -5.44059855764836      0.83497247735630      0.11141394099182
  N   -3.32179239285014      1.56029165075726      0.15110559137642
  C   -2.01269443278363      1.53137109324432      0.10653718143113
  C   -1.03657974365744      0.51166836442125      0.02611468767058
  H   2.46694764711965      4.10547533201511     -0.17757465886822
  H   3.86378354423815      3.10084576567153     -0.22752213742522
  H   0.36455029852958     -3.77174560248685      0.19217175388636
  H   -1.17884618072292     -3.49640940016423      0.74063920687013
  H   -2.60758460617248     -2.49930152293821     -0.46183428274521
  H   -4.65942610673973     -1.49922530647591     -0.48394102180115
  H   -6.18111973933974      0.16513154393641      0.02485577058088
  H   -5.66463775520928      1.80328018194630      0.25601235612371
  H   -1.56833645118145      2.51979396848694      0.16077337448223
