30
Coordinates from ORCA-job ./opt_b97-3c_parallel
  N   -5.63799587174855     -0.83164779704922      0.56902365364639
  C   -4.51369648383692     -0.60308161031420      0.38903200478676
  C   -3.13722536670332     -0.33247796998120      0.17460102524344
  C   -2.73192242124151      0.99262592392582      0.26603755477198
  C   -1.47688296957134      1.55218380179354      0.06269259007484
  C   -1.45490582576416      2.97482990839274      0.12709319289847
  N   -1.52956378117933      4.13145191265316      0.19135557977315
  C   -0.19896804171122      0.93486863828071     -0.13357248980125
  N   0.78142867776850      1.81938700361502     -0.29874006877029
  C   2.06684060887847      1.45149589090829     -0.28203338876174
  N   2.97026228977784      2.43820871431003     -0.54569192563024
  C   2.42865787639771      0.15005330768396      0.04152476638659
  C   3.65642226186681     -0.47628127575983      0.31181985740002
  N   4.87643214441373      0.12269028384667      0.39630893919026
  C   3.40177237189065     -1.87416682575368      0.47317086136854
  C   2.05934846799480     -2.10786441886554      0.32054898962927
  C   1.39441515518667     -0.85784185803497      0.06535243629479
  C   0.06238633742076     -0.50948568123050     -0.10671161528570
  C   -0.96444077248550     -1.50355063481782     -0.34592342398564
  C   -0.54614892001844     -2.77836639779798     -0.81662853513291
  N   -0.26724279882115     -3.82912161730004     -1.22564716534077
  C   -2.33136834269025     -1.42409153489581     -0.18803113969792
  H   -3.51455622680155      1.70395093074873      0.49100678386160
  H   2.55606883223271      3.29717234489220     -0.87276631867175
  H   3.82047361008183      2.17448263877549     -1.01484629880928
  H   4.89419552924937      1.08714188519461      0.68617563703171
  H   5.62109077445936     -0.42400581912436      0.79439053005659
  H   4.15091844125758     -2.61629492442352      0.70228942765304
  H   1.59020009661622     -3.06886021431721      0.42138377273216
  H   -2.86720024721992     -2.34537543855570     -0.37121485061108
