33
Coordinates from ORCA-job ./opt_b97-3c_parallel
  N   -5.53868075972842      1.46493157151970     -0.40222328396005
  C   -4.51408701703193      0.92390128756921     -0.28803051882579
  C   -3.27353211554681      0.27704046964590     -0.12922465422208
  C   -3.29689919971808     -1.02841853287415      0.42242370752130
  N   -4.35114325651977     -1.43036389508576      1.14528588661263
  N   -2.39876827736843     -1.98490658890305      0.16759451370820
  C   -1.15860836407610     -1.84612671435741     -0.18587944188768
  C   -0.29006498331509     -0.71593231383182     -0.13615197324527
  C   -0.74508249564197      0.64769036393982     -0.12312814925353
  C   -2.11089221354081      0.98890699653279     -0.50748014654705
  N   -2.29182586336948      2.09730312351712     -1.23559030372081
  C   0.19436394004696      1.68617935817143      0.07709425572852
  N   -0.21541577911205      3.02440743337266      0.16241232782613
  C   1.57354399378526      1.40054542953475      0.15253085582434
  C   2.44973230155762      2.48572401181040      0.39522326647359
  N   3.06814724767509      3.44601403249100      0.60397983307245
  C   2.04273627699277      0.09799080056127      0.00615768615302
  C   3.34765110601714     -0.44664599439204      0.02342946603486
  C   4.56383948331723      0.24478972613954      0.11932978596036
  N   5.58662933409239      0.79208704496719      0.19213622452400
  C   3.21601088193437     -1.83966320940727     -0.07460532337902
  C   1.85836324284526     -2.19110075967947     -0.14781863380819
  C   1.41305229087978     -3.51507969955408     -0.23880901204912
  N   1.05133606119385     -4.61950300989276     -0.31128412872822
  C   1.09228847958653     -0.98635135252211     -0.11547632349448
  H   -5.12927038329104     -0.82322198029848      1.33201364867263
  H   -4.44601129609492     -2.41226655955172      1.33764830469052
  H   -0.69643803474889     -2.77809291535598     -0.48017165764883
  H   -1.53588089727805      2.76676180625915     -1.30253937896873
  H   -3.22260776132442      2.42187196498324     -1.44056693900532
  H   0.54688804479559      3.65911755928170      0.35262616437220
  H   -0.95839040666263      3.17993467995835      0.82806979011078
  H   4.03420295075185     -2.54013146824838     -0.09233064044199
