29
Coordinates from ORCA-job ./opt_b97-3c_parallel
  N   5.25161532406984      0.35843093863957      0.06062782912959
  C   4.09419317992563      0.23166878602513      0.01314542741488
  C   2.69690914298911      0.07434821291860     -0.03046976409214
  C   2.21294855096639     -1.25603086027622     -0.03309841516397
  N   3.14319354588364     -2.25471880638202     -0.07385803330109
  C   0.88064567674988     -1.67938916376216     -0.02944132218885
  C   -0.34101933430307     -1.01738203811484     -0.01158971756613
  N   -1.39888865929149     -1.85659793603370      0.00284135127122
  C   -2.64599713783528     -1.38881911567903      0.02605797021918
  N   -3.62268189962166     -2.32146119380663      0.07233986181190
  C   -2.93149324649327     -0.00956483834957      0.03345069321404
  C   -4.08364198869676      0.77332060317795      0.05661632113976
  N   -3.77670716525328      2.10022920277086      0.03953723275116
  C   -2.43898379663207      2.18521099390372      0.00619390924754
  C   -1.83338829075119      0.90645684817929      0.00058533191802
  C   -0.50117023972649      0.45183763341694     -0.02074360110126
  C   0.53478983264790      1.37439117336235     -0.05870383180955
  C   1.92580786816412      1.26455769034907     -0.06197068442710
  N   2.61483064049761      2.44380983947599     -0.13701451210926
  H   2.85022388993858     -3.18794764111762      0.14664730968341
  H   4.11022625181714     -2.04714765941933      0.10375205168630
  H   0.75130436922314     -2.75451552871509     -0.03669356368431
  H   -4.57194386232058     -2.06252866818002     -0.12000830238558
  H   -3.35329535993567     -3.27506270711523     -0.09421966974190
  H   -5.11634283737723      0.45728065113453      0.09186464689011
  H   -1.95860370053351      3.15268353832999     -0.01240934790706
  H   0.19308342492917      2.40187256789175     -0.08817294304672
  H   3.60131799941385      2.45489423740270      0.05501733224438
  H   2.12618960855556      3.29195850937303      0.08179722750345
