30
Coordinates from ORCA-job ./opt_b97-3c_parallel
  N   -5.24150229396205     -0.34392332335822     -0.02999301834381
  C   -4.08233571084224     -0.22359232294937     -0.01700868496134
  C   -2.68391805464452     -0.07169299736140     -0.00243991096377
  C   -2.19572869799379      1.25500995509912     -0.02678905526920
  N   -3.12093884989632      2.25876209411329     -0.11985026288052
  C   -0.86164980896502      1.67236702901359     -0.00463292029980
  C   0.35854040503725      1.00824953578172      0.01959117877312
  N   1.41549361169398      1.84603896531087      0.03300100381797
  C   2.66051609185780      1.36978623244916      0.04029836125330
  N   3.64188228306717      2.30310132286150      0.09468331599526
  C   2.94731272966066     -0.00703725683372      0.02347209542613
  C   4.13361831599450     -0.74441982601829      0.02028044047528
  C   3.78584957368594     -2.11224344881200     -0.00887137136856
  C   2.40184677164687     -2.23240229563933     -0.02028344142862
  C   1.84509382666098     -0.92681858463762      0.00028539252326
  C   0.51892117271974     -0.46191594316687      0.01294950167356
  C   -0.52763742838868     -1.37892071402943      0.04080704630097
  C   -1.91457341991293     -1.26462633995976      0.04012122906711
  N   -2.61327779814453     -2.44273547289530      0.13606809657493
  H   -2.82299234249443      3.19277764739333      0.09131080813114
  H   -4.08753020069438      2.06070769707153      0.07177242835879
  H   -0.72735157675283      2.74698841817773     -0.01974172332167
  H   4.57966860198876      2.04329358525217     -0.14765235285456
  H   3.36608355041274      3.25256748717755     -0.08585782037234
  H   5.14153546424035     -0.35752063746285      0.04710795099695
  H   4.48680460658508     -2.93288778949139     -0.01887816680404
  H   1.86077868922454     -3.16527558007503     -0.04753564214162
  H   -0.19129116115969     -2.40784160640937      0.07643361805097
  H   -3.59111980871668     -2.44772797729993     -0.09771000043705
  H   -2.12470001450829     -3.28863576680164     -0.09296542247186
