33
Coordinates from ORCA-job ./opt_b97-3c_parallel
  N   -0.57566008651701      4.59206007748943      0.71922747457917
  C   -0.18553935998322      3.50867584279174      0.55097867818870
  C   0.29180112521146      2.19875763862072      0.34287681407468
  C   1.67223053162369      1.99872545780477      0.30716581540271
  C   2.16283531157088      0.74823184702249      0.04810065605508
  C   3.49795490206991      0.30067602399486     -0.19372779775530
  N   4.60108871093772      1.08366123770063     -0.15736780410163
  C   3.45701271149531     -1.05181055528827     -0.53818427788524
  C   2.12898739703846     -1.49695344189695     -0.48368400904196
  N   1.74915476675684     -2.72917282443049     -0.87560409904336
  C   1.27423609064765     -0.37428422589126     -0.10084818235579
  C   -0.10067863322763     -0.23141571434003      0.06226337181391
  C   -0.95642159659981     -1.36806163806985      0.31316266381444
  C   -0.40141207743500     -2.44580959505848      1.00327294117092
  N   0.02577202310510     -3.38909446573801      1.54949829618626
  C   -2.32446426707754     -1.54504381458381     -0.06119778391437
  N   -2.83013628759454     -2.80591268766972      0.00405086734332
  N   -3.20693463662921     -0.66433461630633     -0.51088334524425
  C   -3.05907501763979      0.65970310606982     -0.45639997715818
  N   -4.17433495186415      1.32818548233066     -0.87113518842593
  C   -1.97235080609502      1.45247507777639     -0.06127226039727
  C   -0.63373088648548      1.12707427873617      0.11627150220550
  H   2.32098208303074      2.85523315573742      0.43647196052025
  H   4.55275172846729      1.95990290442884      0.33020992218731
  H   5.50225067435582      0.64151607566559     -0.13971932535591
  H   4.30413958551248     -1.66353784420104     -0.80722836190537
  H   2.49319399944296     -3.37434284254622     -1.08217583686302
  H   0.95953046107348     -3.16500268051443     -0.42582815520388
  H   -3.82919610743686     -2.88193474901308     -0.05563524466683
  H   -2.33100189986802     -3.53444929422097      0.48178764590791
  H   -4.26493694129964      2.31063503439383     -0.69109621295566
  H   -5.01946016478616      0.79097318317545     -0.94373638737640
  H   -2.19121366990061      2.51109185263005     -0.01920675179957
