30
Coordinates from ORCA-job ./opt_b97-3c_parallel
  N   5.07585012218639      0.27547456681252     -0.00306338826528
  C   3.95312060262589      0.57939844027576     -0.01912619778316
  C   2.61805136478164      1.00354339176533     -0.03723133648918
  C   2.19823023799474      2.34787758146570     -0.17584349997283
  C   0.81569502482961      2.41649127808317     -0.14516076677616
  C   0.29666771241611      1.09737389198019     -0.00197610925356
  C   1.45401531053151      0.21593863400280      0.04577938828001
  C   1.24967586824720     -1.16337931995961      0.08242429605285
  C   2.31628188386141     -2.10120044724767      0.08944249724955
  N   3.13601543602621     -2.92145384087486      0.10450816161388
  C   -0.04194215842484     -1.66176009693364      0.06581526169895
  C   -1.19322395657710     -0.84857990370031      0.04442806454392
  C   -2.44570274388905     -1.56750146911473      0.01890746426950
  N   -2.42204602821239     -2.89080667121516      0.35648956751253
  C   -3.66482318681934     -1.09793731149431     -0.47144161154463
  C   -4.06475553720395      0.20659759122345     -0.64794486176700
  C   -3.41813583014860      1.36543385057605     -0.27580747682441
  C   -2.11864670084746      1.52454006687951      0.20427364777796
  N   -1.83579171942963      2.72182074225694      0.76404971983410
  C   -1.02092369599592      0.58409355608385      0.04813833614574
  H   2.86834332567295      3.18366606147428     -0.29924629562998
  H   0.25798056367209      3.31998835459947     -0.31612420331014
  H   -0.14161615307323     -2.72916465137727     -0.03164273983146
  H   -1.71631634739427     -3.21960842911074      0.98879212271452
  H   -3.30395464406125     -3.36349130494458      0.43459451002546
  H   -4.41755999344548     -1.85455348876289     -0.65942734194858
  H   -5.07274975398482      0.33738720052772     -1.02233580927340
  H   -4.01243806051291      2.27103322141392     -0.31279072299510
  H   -0.95520287003934      2.85819087638194      1.22912140251284
  H   -2.58850762728547      3.33503638493371      1.01626281123220
