37
Coordinates from ORCA-job ./opt_b97-3c_parallel
  N   -5.82982340344048     -1.03769767952919     -0.13313523562770
  C   -4.74096003565016     -0.62451970104895     -0.08586402778793
  C   -3.42430004912577     -0.13803569408148     -0.04291753807574
  C   -3.20644713604506      1.18670028006775     -0.53745977539199
  N   -4.07127868625722      1.69660418401944     -1.43036952432401
  N   -2.28723763821574      2.01194552336728     -0.07791458853889
  C   -1.18419151036553      1.68241272743539      0.55502508687372
  N   -0.72716086398592      2.54655070256929      1.46104307762872
  C   -0.38442667550681      0.48964090190759      0.28849469151435
  C   -0.99486948534750     -0.80713689061630      0.28142495841783
  C   -2.42643038753701     -0.98187664903001      0.49240357814378
  N   -2.83590413815446     -2.06212812788974      1.17453658624077
  C   -0.16571869188604     -1.94388498299304      0.12082963260989
  N   -0.71002501493804     -3.24273630921521      0.08194391021574
  C   1.23010973484689     -1.80118219826363      0.01379499557896
  C   2.00141090412846     -2.97168996432021     -0.16765601760479
  N   2.55083776640614     -3.98478267883594     -0.31562907393922
  C   1.82597543140231     -0.53555115486676      0.02024765941034
  C   3.16572141211438     -0.12640577381522     -0.11740892882656
  C   4.32752918156460     -0.88866524824803     -0.25525282674862
  N   5.35282065875318     -1.42695844536321     -0.37823845442519
  C   3.17851634427865      1.29679102160737     -0.14531835139227
  N   4.28426558710445      2.05400875057222     -0.26734464614581
  C   1.85459798646013      1.77779429714930     -0.00087101590995
  C   1.53825741121002      3.12473488848653     -0.14166300698067
  N   1.31364752608553      4.26550351775578     -0.25045519207947
  C   0.99048445660503      0.63454817767269      0.12412046719525
  H   -4.88363515076323      1.18077459611267     -1.71716899915794
  H   -4.05171076949558      2.68622017645144     -1.60061150594244
  H   -1.10411224889119      3.48019694663542      1.46890490487783
  H   0.19543904844987      2.42685747090892      1.84089558745989
  H   -2.17380243715438     -2.81052628710223      1.33611411936122
  H   -3.81670617884710     -2.28520588934835      1.21876015579023
  H   -1.41002930642611     -3.35431209417406     -0.63873125985263
  H   0.00192869271146     -3.94827280773756     -0.04669087046218
  H   5.13993779140829      1.61488875783754     -0.55962010029149
  H   4.18652897421256      3.03210204471606     -0.47531810810611
