27
Coordinates from ORCA-job ./opt_b97-3c_parallel
  N   -5.72098964472106      0.08330162949007      0.71569878145770
  C   -4.58031082348377      0.20008086380408      0.53273184621321
  C   -3.20075866611861      0.36659397636209      0.31139772984950
  C   -2.55873390878172      1.62325807737711      0.10156428159128
  C   -1.20658491263719      1.37731853767474     -0.04156724302697
  C   -0.09954791229121      2.21165400013671     -0.28087808838424
  N   -0.20423380416750      3.51878453135157     -0.53694601296343
  N   1.15233984895508      1.73277352618758     -0.23627514040866
  C   1.39133238929103      0.44106778217661     -0.06126916112775
  C   2.76041760450967      0.15195550798320      0.20924576982929
  C   3.60996321139740      1.28262985368758      0.36693042084036
  N   4.37569013616495      2.14175764224759      0.51622550827712
  C   3.39891705662098     -1.07625688384543      0.41383604837338
  N   2.99941817989757     -2.30989545403473      0.17630114165321
  C   1.78482239729548     -2.66031058128103     -0.20999932050513
  C   0.57431235781109     -1.95595930764930     -0.25619993042644
  C   -0.50603867233306     -2.80842268283883     -0.61250547023468
  N   -1.32403461322350     -3.56914523209905     -0.92821833816959
  C   0.31336509622400     -0.57032850944033     -0.04506862090357
  C   -0.97918982434247     -0.05128242565795      0.06127834762820
  C   -2.25055821006551     -0.65018785564296      0.27477859161719
  H   -3.07003183816238      2.57197855036119      0.07534067214030
  H   0.63850348766858      4.05670964850044     -0.64347320320641
  H   -1.09079776672639      3.98387649441096     -0.58362206487120
  H   4.41956349056941     -1.00530889900004      0.77429344907125
  H   1.70715658645571     -3.70449882482921     -0.49328250246337
  H   -2.46899678730638     -1.69031314323259      0.42256256554944
