26
Coordinates from ORCA-job ./opt_b97-3c_parallel
  N   -1.17305226399479     -3.83651003690986     -0.04802479945975
  C   -0.55467513299894     -2.85124711650373     -0.03190735224796
  C   0.18199885324627     -1.64680953385433     -0.01494155711371
  C   1.57254289860951     -1.73030342087263     -0.01135871839369
  C   2.33642095785896     -0.58346442901449      0.00347073538498
  C   3.72376548845010     -0.36791271382520      0.00622595953156
  C   3.94221099562109      1.02145370541051      0.00912624199691
  C   2.71540279281046      1.68443273881258      0.00643003562313
  C   1.68881220066869      0.71169461114589      0.00475609536069
  C   0.29897193291066      0.85845957823781     -0.00755543138412
  N   -0.15654300771685      2.12397164320563     -0.03178304712546
  C   -1.39281356876341      2.56859540452243     -0.03016219680121
  C   -2.63117843321154      1.94209284545362      0.00970220697894
  C   -2.87873364968397      0.57256212828823      0.04371392467926
  N   -4.17324925391919      0.14752272108451      0.12367413525640
  C   -1.89408557423723     -0.43584927686250      0.03444511137893
  C   -0.51433409300901     -0.38674321839517      0.00034988546935
  H   2.03588953273451     -2.70817850418667     -0.02059391629663
  H   4.48294897620372     -1.13474193506547      0.00446749525762
  H   4.90974169488001      1.49950082260872      0.01212228870747
  H   2.55812684351991      2.74979580697861      0.00652338524073
  H   -1.44857077564573      3.65505245780672     -0.06531978629860
  H   -3.49116146008109      2.60202048332369      0.01452601625780
  H   -4.38622251783428     -0.81623530328558     -0.05891261545706
  H   -4.91396254589452      0.79676739641072     -0.06716316229249
  H   -2.30402643712333     -1.43844941711408      0.06032245534692
