31
Coordinates from ORCA-job ./opt_b97-3c_parallel
  N   5.13639401877937      1.89611253556025      0.74836622473040
  C   4.04782785418415      1.54469412802466      0.53832671904659
  C   2.75258951484715      1.05366629815270      0.25781151334016
  C   1.71513375659795      1.96937499261992      0.29064833371384
  C   0.34617803969329      1.85193439694912      0.06514885567624
  C   -0.29979894227552      3.11273574934249      0.10241592210780
  N   -0.77309315060589      4.17339670446543      0.13529181608465
  C   -0.45644575181143      0.67252769733005     -0.04178878547676
  C   0.11694681043338     -0.66301799830630      0.05875318340536
  C   -0.73718024302318     -1.73547594681402      0.42730853616814
  C   -0.20875265548091     -2.96264862515547      0.89367860244150
  N   0.15509348393236     -3.96427366698743      1.35536695101809
  C   -2.13493535174117     -1.61405594359011      0.41954617994471
  C   -2.68118004197207     -0.41875810672283      0.05913154418424
  C   -4.02798234467688      0.03543042054055     -0.12753143738521
  N   -5.15708785062333     -0.65919775351071     -0.01382776635505
  N   -4.06142659538994      1.34813217209052     -0.47100141800669
  C   -2.79371444696361      1.76781891674240     -0.49133574795544
  C   -1.85694918899931      0.73329302987903     -0.17487279695088
  C   1.45159242828406     -1.01099844331619     -0.34109112308243
  C   1.60916723165185     -2.26889058448194     -0.96386497152800
  N   1.83623255569379     -3.24667718838868     -1.55339412416641
  C   2.66517910401436     -0.30053944918053     -0.18476422930746
  N   3.81598964939686     -0.92972322021004     -0.46224479085554
  H   2.03394026677481      2.97796514315606      0.51725170097422
  H   -2.73027210613824     -2.47424562991101      0.69469884108542
  H   -6.03148180349198     -0.19351470014243     -0.18479934368774
  H   -5.16772865548320     -1.63597232842512      0.21188997237987
  H   -2.58463083214601      2.78949240066562     -0.75104396603366
  H   3.82594360910686     -1.89553216239499     -0.74228755615511
  H   4.69718466792671     -0.45511227687069     -0.36959703945512
