28
Coordinates from ORCA-job ./opt_b97-3c_parallel
  N   -2.28250916023533      3.40445761910346      0.03624738536279
  C   -1.88614344186538      2.31083045497072      0.02499820341694
  C   -1.59830917670901      0.92317401573378      0.01627590118406
  C   -2.74775744437442      0.06977385298038      0.07122922480039
  N   -3.95400797130228      0.68144873048298      0.21741298111638
  C   -2.74549182102543     -1.31329082766760      0.00612411251714
  C   -1.65396569649477     -2.18196826814947     -0.10394206127148
  N   -1.93925632367505     -3.51030198136843     -0.27855239978088
  N   -0.34778171559918     -1.94415777969320     -0.07215412573553
  C   0.31265783610542     -0.79538717043490     -0.02191636298939
  C   -0.23109184778419      0.59622847375987     -0.04970346261988
  N   0.56947992532104      1.66805010924099     -0.10276160960682
  C   1.90040588577290      1.55790315473872     -0.07813704187387
  N   2.57782898151617      2.71533926619735     -0.17675571171965
  C   2.53536657297361      0.30678787056172      0.02964893559920
  C   3.84768305941511     -0.15815347500379      0.08707951042401
  N   3.88826499494287     -1.52128049351739      0.14797483873747
  C   2.61875030138021     -1.94410721680889      0.12089993686187
  C   1.71007824543881     -0.85963324659680      0.05231294211011
  H   -4.79096404414218      0.15089847494291      0.06679361959456
  H   -4.02800669899588      1.67762935460516      0.10412499769158
  H   -3.72214909476147     -1.78299338410028      0.02457343997032
  H   -2.85048071222800     -3.85939953335328     -0.04459977528257
  H   -1.16744240922724     -4.13653862425737     -0.13084271186681
  H   3.57082560290972      2.74883706185430     -0.04785459897522
  H   2.05432276037425      3.57256630345139     -0.15286506202275
  H   4.76710448431428      0.40981173108002      0.08648826567287
  H   2.37406691675543     -2.99378686395231      0.15483221838514
