26
Coordinates from ORCA-job ./opt_b97-3c_parallel
  N   4.16517349835614      1.19963262402441      0.04475788085312
  C   3.03391627254143      0.43462926508209     -0.00610803276516
  C   2.96488540043483     -0.97594691561068     -0.00183636213026
  C   1.61013980761717     -1.27855344870440      0.00000468229544
  C   0.87962845670464     -2.46877566095626      0.00434669902244
  C   -0.48683576886900     -2.40569851641273      0.00489438602883
  C   -1.21673790459576     -1.18664886690555      0.00184231067562
  C   -2.60784860087495     -1.34645292356275     -0.00064519993146
  C   -3.62732055536525     -0.42031919454539     -0.00760717767379
  C   -3.49758624191328      0.96285274261915     -0.01248522207935
  N   -2.43794322022280      1.74056663052495     -0.00480513949392
  C   -1.13868397345481      1.38422176600674      0.00583190729215
  N   -0.33292221506567      2.44481845659859      0.02248621681803
  C   -0.49278604813110      0.07335031180953     -0.00074293471936
  C   0.90511424307979     -0.00514638692204      0.00005027054881
  N   1.81811679643475      1.01624183471838     -0.00530389757714
  H   5.00682325841353      0.77809225128248     -0.30631554184014
  H   4.04158657992601      2.15774171521091     -0.23597323930463
  H   3.79352718996914     -1.66528063532433      0.00938149825621
  H   1.38311874430988     -3.42719015571927      0.00706723879327
  H   -1.05695808824919     -3.32462056883700      0.00775725509221
  H   -2.93215847870586     -2.38077536779669      0.00245813097309
  H   -4.64075246589758     -0.80093954452546     -0.01141810909080
  H   -4.43143111450221      1.52112826246750     -0.02257840389820
  H   0.68908641380090      2.30815063013475      0.02387290215047
  H   -0.77941682694077      3.34568405574309      0.02545575340454
