26
Coordinates from ORCA-job ./opt_b97-3c_parallel
  N   4.53322130730475     -0.91086466069163      0.28507241881590
  C   3.32549972527171     -0.32722744000423      0.06404920812353
  C   3.32075193174137      1.07692440009072     -0.11181524460537
  C   2.20246085864684      1.87693314169242     -0.17684270918134
  N   0.90634979886039      1.61403899696094     -0.11978254304413
  C   0.35493223122611      0.36898153748313     -0.04391669832416
  C   1.01358363372631     -0.95792115391170     -0.06161301985299
  N   0.28028704287590     -2.08914506882999     -0.16058250419098
  C   -1.05313824826776     -2.06873793478709     -0.14203323297552
  C   -1.76342817832039     -0.90324032605728      0.01012055787370
  C   -3.13941094760697     -0.49560721690913      0.05039637105153
  N   -4.22264429110777     -1.29074246114509      0.01268064941632
  N   -3.27596943110507      0.84529055464193      0.08938515930768
  C   -2.01693445681566      1.34462462793242      0.07376144983758
  N   -1.73043457629842      2.63941896072030      0.07971542533866
  C   -1.02464019682353      0.31019830796314      0.04863212150566
  N   2.32807189821332     -1.19934806233002      0.05305561951319
  H   4.56246387618411     -1.91413707180322      0.24512102135121
  H   5.38575452674244     -0.40210611491617      0.14671769905828
  H   4.27839606883369      1.58166990395464     -0.14057088373672
  H   2.41093344316820      2.94000210779740     -0.28321801338983
  H   -1.53657575147535     -3.03520089978280     -0.25856962644800
  H   -4.12916862161400     -2.26965466826843      0.20809888637779
  H   -5.11517574175675     -0.86833387648072      0.19881931970694
  H   -0.74272009579770      2.86520062254371     -0.01415458369805
  H   -2.45908340010582      3.32756064543668      0.01265925006909
