30
Coordinates from ORCA-job ./opt_b97-3c_parallel
  N   -5.31630425216610      0.65585155728300     -0.66926812516657
  C   -4.16781358675414      0.68472732139953     -0.48413289354880
  C   -2.77558678895275      0.67266020687302     -0.24434862402146
  C   -2.13668898475659      1.91281747331288     -0.26285699129116
  C   -0.82503665446958      2.24657328856512     -0.05136254793863
  C   0.32668470604787      1.45324658677693      0.09054480525763
  C   1.52677713466148      2.13847610886709      0.25350221148587
  C   2.78024698243633      1.52087830876429      0.22866528382432
  N   3.90534391370025      2.24871861534984      0.44424517497431
  C   2.82732691466657      0.14173583108411     -0.02520256295660
  C   3.89671998198959     -0.72680245549881     -0.24246813529417
  C   3.37014240995854     -2.00419849929441     -0.53684576109028
  C   1.98992022819687     -1.94880087205321     -0.48413503909617
  C   1.59984101848211     -0.61176049680706     -0.15711954888476
  C   0.34215888389307     -0.02420886289490      0.02122120001419
  C   -0.80703518947397     -0.83645719026029      0.26692195978461
  C   -0.56938134932277     -2.15072106422736      0.73883750313039
  N   -0.53841114022695     -3.23039739103262      1.17239845695330
  C   -2.20171119389524     -0.57932909602833      0.10595460113919
  N   -3.06095078032540     -1.60799325329523      0.28100448125684
  H   -2.79786293122711      2.74864666063876     -0.45195678079710
  H   -0.63121891913389      3.31189214385883     -0.05623122054284
  H   1.48238740580776      3.21495417891395      0.35844169875480
  H   4.79498192128946      1.85112337592297      0.20603644358422
  H   3.85404790745449      3.25022950162861      0.39844515464257
  H   4.94843998059225     -0.48284081452096     -0.20839446362053
  H   3.95268037313964     -2.87936497168782     -0.77781346027673
  H   1.33319869161207     -2.77134078810503     -0.70171055702883
  H   -4.05232152951743     -1.45146084595741      0.26133030848946
  H   -2.73388815379645     -2.51843652568873      0.54988587766195
