30
Coordinates from ORCA-job ./opt_b97-3c_parallel
  N   5.61115103771420     -2.16584051224813      0.36419593460051
  C   4.60592677725279     -1.58828329101963      0.26136511806416
  C   3.44770666893692     -0.81100484928675      0.14152043919023
  C   2.12115853290622     -1.23686443592380      0.09345506867846
  C   1.29274324907394     -0.09835698759115     -0.00267221689541
  C   2.13638817836017      1.06494551910941     -0.02905880869333
  C   1.54484622131971      2.30736502263325     -0.19836047913841
  N   0.23903282773227      2.48172411566546     -0.26247375921305
  C   -0.59967387454154      1.40420000084270     -0.17161572129305
  C   -1.93607971603087      1.75201744939739     -0.10276421036957
  C   -3.10205040968872      0.98205674908450      0.05818187181420
  N   -4.25263536144605      1.68704092727719      0.18457087920354
  C   -3.18950291167750     -0.42474377145165      0.06948191026428
  C   -4.46382211763169     -0.98175824759192      0.25087522487507
  N   -5.52852088560613     -1.43382136305144      0.40298712576673
  C   -2.10175957703187     -1.32976593097113     -0.17971129303553
  N   -2.43831048790161     -2.62327342231447     -0.40570362522650
  N   -0.80441705441416     -1.11327219093079     -0.20004399368228
  C   -0.09588789400590      0.01767185554108     -0.11665770859114
  C   3.47481150741873      0.62789188431809      0.06284283614558
  N   4.60528341630799      1.36102024741027      0.03351844908484
  H   1.78888345465578     -2.25957879234821      0.13403615784664
  H   2.14053234943517      3.21239644529473     -0.28880481301926
  H   -2.08896428800452      2.82321821234190     -0.14147504170556
  H   -5.12405986474625      1.22644654754518      0.37841843835219
  H   -4.21821651093915      2.67938749583448      0.31846839731905
  H   -1.68984571852359     -3.29120657359457     -0.42266483060676
  H   -3.38126200957780     -2.95365760176995     -0.31150149583633
  H   5.47979056673901      0.91509711164972      0.25127288913420
  H   4.56545012871394      2.35200395364823      0.18246547726648
