33
Coordinates from ORCA-job ./opt_b97-3c_parallel
  N   -6.31108534424837     -1.22193388073965      0.40142176829110
  C   -5.29015028034018     -0.67809927364481      0.27852877533578
  C   -4.01791606377933     -0.11203315340527      0.13659189484665
  C   -3.67046915480330      1.21639731509513     -0.06998265972024
  C   -2.25460362937629      1.31293326817226     -0.12927560925996
  C   -1.41557236188488      2.36657258725854     -0.38772620118580
  C   -0.02781965436765      2.15074825567067     -0.37620502706415
  C   0.78153406083874      3.24596774423987     -0.76402110302607
  N   1.37974971873427      4.15467673281199     -1.17043609982197
  C   0.55208151663265      0.88767387450163     -0.07225950024318
  C   1.91196810205123      0.82626907863036      0.33599767577266
  C   2.47377282798841      1.97823364989319      0.92753211393063
  N   3.01540048585953      2.83781240376238      1.49558893074244
  C   2.81735760254364     -0.26786065706960      0.23546707007184
  N   4.10615964247221     -0.03066255950444      0.53129606754976
  C   2.48691570907136     -1.58023126820268     -0.18814477593492
  C   3.56185079826074     -2.44973191410477     -0.44020164715655
  N   4.44673161638151     -3.17996331915936     -0.64536617989804
  C   1.18394194705838     -2.14319739951766     -0.24686699021511
  N   1.10315890616152     -3.47602608178871     -0.49215108618604
  N   -0.00079122944034     -1.57718462476038     -0.04456839107557
  C   -0.33422539620620     -0.27723378926726     -0.03374572529164
  C   -1.70408369330154      0.00522697879771      0.03864798577512
  C   -2.80174792268015     -0.88869545542104      0.19209863790283
  N   -2.71741435047884     -2.19882943770853      0.36130613142772
  H   -4.36608856144501      2.03316256728913     -0.17163347018823
  H   -1.79133527610641      3.35536365988397     -0.60770593210677
  H   4.79039512362724     -0.76488274114063      0.49246644874628
  H   4.42133353598730      0.89518005201992      0.76379888233248
  H   0.20741522214970     -3.83582623420947     -0.76463573660192
  H   1.91453075105755     -3.99907378745911     -0.77068010386779
  H   -3.53687966042226     -2.76947569347088      0.48410952433087
  H   -1.78327729869541     -2.58981131645319      0.37139925228791
