30
Coordinates from ORCA-job ./opt_b97-3c_parallel
  N   5.61454360083008     -0.27142424871891      0.07106831554181
  C   4.46278748313920     -0.09224437725450      0.06768851055804
  C   3.06321486546182      0.04927591255147      0.05499149706895
  C   2.54627354113190      1.35182331623994      0.06425061355128
  N   1.32925546873737      1.82519587533797      0.03377482571260
  C   0.17203701388900      1.12547091647199      0.00081105525764
  C   -0.98627664215610      1.93833557679839     -0.03534124039072
  C   -0.83535278751258      3.34724948457996     -0.05701250704844
  N   -0.82946231673727      4.50808644670756     -0.08035374033195
  C   -2.29624608857073      1.42276994596922     -0.03772936740189
  C   -2.45619621753439      0.06931955320897     -0.00672073381940
  C   -3.63287703971106     -0.77537530656243      0.00608769556848
  N   -4.89479286399806     -0.31208843362517      0.01852832754275
  C   -3.23114793073025     -2.10981674038080      0.04792225110762
  C   -1.82357821855152     -2.13971445780978      0.05330649994564
  N   -1.02030430404611     -3.19557542084625      0.08231056882941
  C   -1.31704895538558     -0.78439295824861      0.02018464961818
  C   -0.00174434864425     -0.32896226599393      0.00405905016320
  N   0.96703287999810     -1.29144343522256     -0.00872517760049
  C   2.27903356132214     -1.15243624892475      0.00427554018501
  N   2.97095576335132     -2.31673517280309     -0.00869108772293
  H   3.30763945416082      2.12753241957640      0.09711853201134
  H   -3.12580323116200      2.11661485546931     -0.05431606745788
  H   -5.07602154406064      0.65594197246341     -0.17165963172555
  H   -5.66505442489918     -0.94091390440627     -0.11465022655556
  H   -3.88096827852383     -2.96988905998399      0.07229008988899
  H   -1.36830374044914     -4.13528666035456      0.14110630203981
  H   -0.02524935573345     -2.97238254318544      0.08840394475777
  H   2.47217903789245     -3.16392356816939     -0.20379331342627
  H   3.96884379439198     -2.31814194798412     -0.12629249416739
