28
Coordinates from ORCA-job ./opt_b97-3c_parallel
  N   5.39822122850127      1.13910845182498      0.01470646402594
  C   4.26427047514659      0.87924660491100     -0.00568930583396
  C   2.91865435731759      0.49062124791099     -0.02170419633568
  C   1.79131140122976      1.32836829244773     -0.01828483060534
  C   0.63855030591045      0.52909626607509     -0.01432114400523
  C   1.08422071148535     -0.86003209038997     -0.01886240428278
  C   0.15839516606035     -1.87150974861282     -0.02667038914349
  C   -1.20522156679626     -1.57619693037458     -0.01855501168685
  C   -2.10212820236581     -2.66750859337541     -0.02303779204792
  N   -2.82275050222394     -3.58002891491772     -0.02526715884428
  C   -1.70018114589358     -0.22913316850352     -0.00470212172927
  C   -3.09260967553342     -0.07082674439164      0.01019805611623
  C   -3.91427556747436      1.04872459833433      0.02259278619229
  C   -3.57249123301580      2.38303559995724      0.01976543744765
  C   -2.27573419540219      2.89897164713818      0.00364294104765
  C   -1.07530484104823      2.23594854274341     -0.00814717263741
  C   -0.72938844560374      0.86114775094539     -0.00698247903809
  C   2.49504654351506     -0.87118707192725     -0.01912019102385
  N   3.32483608282834     -1.94556047656798     -0.07914440580462
  H   1.85272062544223      2.40330921821060     -0.00943039211608
  H   0.45472525722035     -2.91254177939122     -0.04394209210004
  H   -3.63955673580537     -1.00446195260409      0.01249418452206
  H   -4.97505934175430      0.82898399906459      0.03461514125086
  H   -4.38292951751411      3.10024779323116      0.02915214996056
  H   -2.20076934397791      3.97991471770338      0.00031317379361
  H   -0.21771951271544      2.89439002054393     -0.01996504076357
  H   4.29554538843828     -1.78892700961807      0.13480552603474
  H   2.97400118942889     -2.83458101796760      0.22910993440687
