28
Coordinates from ORCA-job ./opt_b97-3c_parallel
  N   3.71286124927206      1.82866034199663     -0.08841119759044
  C   2.85276349821820      0.73808082602135     -0.03120225071680
  C   3.44022077179032     -0.53023630911194     -0.03436836460735
  C   2.79436957637400     -1.74944357499939     -0.03858045248833
  C   1.44513365470027     -2.05035878779461     -0.03746400095284
  C   0.30162215471112     -1.23643042090020     -0.03434346883304
  C   -0.93223459287886     -1.89132887461812     -0.02806816973333
  C   -2.15996296148367     -1.23030100650041     -0.01918243975294
  N   -3.32533548057402     -1.94557262529043     -0.05330828011143
  C   -2.17140613951084      0.17245980908060     -0.03174356397110
  C   -3.21733366003474      1.10050107186947     -0.03042281038579
  C   -2.64489162913015      2.38712561807115     -0.02744332711752
  C   -1.25806986399251      2.27365632577006     -0.02623904153509
  C   -0.92111079221064      0.89723039956100     -0.03111987389187
  C   0.33078080095141      0.24076434138212     -0.03248033825430
  C   1.48612083676601      1.02194708606933     -0.03760094537688
  H   4.64490138209212      1.66700022016842      0.25266901390463
  H   3.33643383505041      2.70110230692371      0.24094226822729
  H   4.52398100808302     -0.55927549755600     -0.04308432866529
  H   3.44967017079121     -2.61293894017805     -0.03895409536866
  H   1.22731600946144     -3.11242524982773     -0.03938874161694
  H   -0.92944499767318     -2.97460018639651     -0.03019539321561
  H   -4.16031326081627     -1.46874338173387      0.23639759825839
  H   -3.28456522534734     -2.90839861845955      0.23113621516867
  H   -4.27624870570745      0.88886476722788     -0.05006496550627
  H   -3.19628381902692      3.31541948998631     -0.03032091980518
  H   -0.57388971239034      3.10781397763142     -0.02545427909757
  H   1.27557826321531      2.08472665890737     -0.04570056746439
