31
Coordinates from ORCA-job ./opt_b97-3c_parallel
  N   2.47385436729456      3.07363772801988     -0.14397542182303
  C   2.33515962293009      1.91423726094051     -0.09190694629181
  C   2.22002688703593      0.53148642473010     -0.01980578585542
  C   3.31959543176233     -0.36198525976831     -0.21867104822858
  N   4.62477923022947      0.00786521610498     -0.30854189632987
  N   2.95125524401471     -1.64838616817445     -0.27444270086110
  C   1.60237334706097     -1.64414866987109     -0.13242164045602
  C   0.74030973086022     -2.72767485424637     -0.18462911377535
  C   -0.62026890048157     -2.52147960208738     -0.06712806175477
  C   -1.18612397092980     -1.24638713967074      0.11605602446947
  C   -2.62917080697645     -1.15896415548370      0.19404702616341
  N   -3.30053945722098     -2.31883455227820      0.48217428445333
  C   -3.40372850817328     -0.06506150857986     -0.14196452236178
  C   -2.95633299269953      1.23986482268791     -0.41415505416026
  N   -3.81103169133238      2.08218970481188     -1.06318134048447
  N   -1.85772368795525      1.81309238669022      0.04483136678551
  C   -0.80599548250707      1.20677663844459      0.55781002406158
  N   -0.09501605233313      1.92189580270479      1.43863904937831
  C   -0.31132523375398     -0.11548176537805      0.20728575831976
  C   1.06829755353901     -0.31233801339810      0.04718129569346
  H   5.23260820358436     -0.67486045664779     -0.72746067662640
  H   4.81404881282867      0.96225551176071     -0.56240300541037
  H   1.13573238460301     -3.71937114547087     -0.35677336824928
  H   -1.27133616347009     -3.36957432001207     -0.21564392718751
  H   -4.28331862292102     -2.24049383902499      0.67233612028867
  H   -2.82603958375196     -2.99527928811817      1.05149699359103
  H   -4.47446187419051     -0.22057566687574     -0.20442400630353
  H   -3.44334294727064      2.98840493038801     -1.29595211427720
  H   -4.47390274108459      1.69170815496807     -1.70709864801930
  H   0.80664409719486      1.59150585271021      1.73302952442467
  H   -0.24434581098589      2.91609126442414      1.47361625892686
