28
Coordinates from ORCA-job ./opt_b97-3c_parallel
  N   1.09560444947850      3.09019609443806     -0.96809781001467
  C   1.15301713573506      1.98749094966755     -0.59263785718425
  C   1.38482577860809      0.66591126526031     -0.16480847795427
  C   2.76752978760884      0.40175614100110      0.07715286277433
  N   3.63434382415104      1.44180883394631      0.02721700113212
  N   3.39369806459979     -0.74703278992050      0.37578497807950
  C   2.83673821495952     -1.94265084604808      0.32262777725028
  C   1.55014671756430     -2.37264071443750      0.05664061223214
  C   0.35034726243705     -1.65865066822117     -0.07852243925255
  C   -0.81830119299401     -2.42461505851046     -0.24966046120546
  C   -2.08102674735169     -1.87001137016196     -0.25295005297719
  C   -2.21621292015544     -0.51096627827956     -0.05315285614447
  C   -3.36013261314711      0.31690977031775      0.08029998021717
  N   -4.65654245166352     -0.08066028727630      0.03262412272814
  C   -2.91336506535970      1.63822694786114      0.35613322211744
  C   -1.53735180614557      1.64660047695983      0.36664596312454
  C   -1.04813332478083      0.32203069873333      0.10521465043350
  C   0.24410416707462     -0.19743978876013     -0.00696814654958
  H   3.35912937626499      2.35327434717434     -0.29021264812156
  H   4.60918442159525      1.20980710503776      0.07369521279139
  H   3.54834407827012     -2.74251768662279      0.51458034543143
  H   1.44414200527078     -3.45047866606049      0.02921406999223
  H   -0.70716796313670     -3.49510481390253     -0.35119897021170
  H   -2.94336868644953     -2.51598948705472     -0.37483031969376
  H   -4.87400322153404     -0.96205870761407     -0.39695874926476
  H   -5.36251889534906      0.62430592083628     -0.08283537153285
  H   -3.55386026057833      2.48763772709421      0.53661781392005
  H   -0.94001720697231      2.51721418954280      0.56784974928233
