28
Coordinates from ORCA-job ./opt_b97-3c_parallel
  N   4.26446945533017     -2.52058741763185     -0.37445946626104
  C   3.56633926339779     -1.60094123054769     -0.22972282045696
  C   2.67668733683825     -0.51466586641449     -0.05709252231784
  C   3.27620180721977      0.71777339879123      0.19779243668896
  C   2.70255852961354      1.95140803628391      0.40099794076345
  C   1.36299445069836      2.29308902271941      0.28021875177278
  C   0.23988066416894      1.52665916391474      0.00462811441516
  C   -0.99816040264197      2.26584843477511     -0.17008949701160
  N   -0.95963616399818      3.63181283227624     -0.35723357518507
  N   -2.21350005239751      1.74640546658797     -0.12428973554333
  C   -2.28797782546929      0.42352554851910      0.01384492123338
  N   -3.40469854245397     -0.30569816978818      0.06898879250774
  C   -2.93006671994842     -1.58058689061598      0.08107031494243
  N   -3.77002285804896     -2.62885035191501      0.17100012795473
  N   -1.58833405855811     -1.73890320992606      0.03645755504538
  C   -1.12731632598098     -0.45415728763793      0.01228522718145
  C   0.15888780335854      0.06619328211686     -0.00851220366659
  C   1.28157273062352     -0.84867929727696     -0.06368674485610
  N   0.97817184032216     -2.13986563456880     -0.14827883745834
  H   4.35700115450290      0.68359229778516      0.25630133905617
  H   3.38104865144542      2.75808739583041      0.64298569671153
  H   1.16055941353036      3.34186425354881      0.45036942062625
  H   -0.26641934214023      3.98733697164979     -0.99205714954641
  H   -1.87944462016663      4.00424699026068     -0.53172557682464
  H   -3.41519821768925     -3.54102032426905     -0.04958599067438
  H   -4.74176615545519     -2.45167593000392     -0.00673542090238
  H   1.70907013828584     -2.83166201205569     -0.17892794273356
  H   -0.01394338928679     -2.42255699890783     -0.11115508476124
