31
Coordinates from ORCA-job ./opt_b97-3c_parallel
  N   -4.28407812362928      2.75245691728298      0.22512737421086
  C   -3.52071546672279      1.87842385187097      0.12695132925189
  C   -2.60708695642996      0.81379592764181      0.01474358116847
  C   -3.11755836558063     -0.48551259632765      0.28399148738503
  N   -4.30207620324493     -0.58750408272425      0.92150426622652
  N   -2.60377006280793     -1.63932336971164     -0.10846244037679
  C   -1.36009682824914     -1.91312991510449     -0.44325591783765
  N   -1.21075052514521     -3.03593509862310     -1.16682795983226
  C   -0.16351070526067     -1.16400839439190     -0.09297996373592
  C   1.04803851178849     -1.86679720903989      0.18725866350896
  N   1.05631699258994     -3.26480981975462      0.33474534848483
  N   2.24014880996808     -1.30196871071678      0.28680170380068
  C   2.30675558236065      0.01356090710484      0.09969817615648
  C   3.41461783106773      0.89069306035408      0.09324116043465
  C   4.76433853414650      0.56938643847937      0.27657864648734
  N   5.88754138652565      0.31010430170428      0.42840444469333
  C   2.86305051569256      2.16824877802584     -0.13126914326416
  N   1.52616627021042      2.15003590720156     -0.26192566777060
  C   1.15201355183522      0.84208711402686     -0.12414581065924
  C   -0.11789153851418      0.26053095015394     -0.18707323193939
  C   -1.27722727986854      1.14494460672161     -0.33299991479934
  N   -1.01381223146976      2.39326001879462     -0.70493915891987
  H   -4.76195145070601     -1.47951976882377      0.90662211256945
  H   -4.85326244740811      0.22645221952312      1.12786471627669
  H   -0.29622387078466     -3.46050000974631     -1.23145650596764
  H   -2.01990957615209     -3.62336061179506     -1.27225917673302
  H   0.37291381831005     -3.61401124145972      0.99158926965507
  H   1.98412739879709     -3.55284968302783      0.61201172757586
  H   3.41308677996190      3.09354864664988     -0.20499398939407
  H   -0.02047540085444      2.70103442235935     -0.68527249992941
  H   -1.74963839902601      3.08124848925177     -0.69124531072677
