23
Coordinates from ORCA-job ./opt_b97-3c_parallel
  N   -1.84273309725961     -3.57350185142873     -0.10835721080425
  C   -2.01614760011116     -2.42447436018772     -0.03435560322741
  C   -2.20264884435801     -1.04155510871869      0.04991679120185
  C   -3.43438613149905     -0.36380603527128      0.22233265013705
  N   -3.32042692407289      0.97159428085598      0.28990063765035
  C   -2.00215664936352      1.21962461285358      0.17441983741277
  N   -1.45728463577638      2.43473799323498      0.15980513243217
  C   -0.14301521439103      2.49034250037847      0.01439960191763
  C   0.72306944956599      1.38013460515398     -0.09248640978324
  C   2.09263046236139      1.67045077446530     -0.24775596957246
  N   3.16523773348186      0.92030986060929     -0.19889652978872
  C   3.14236057533386     -0.41691961981141     -0.04164527054767
  N   4.28183435906509     -0.94425879039194      0.40995600517040
  N   2.20074835754123     -1.33350584592016     -0.36114731927003
  C   0.91831473583388     -1.11236271701090     -0.40534084484846
  C   0.15637784233318      0.05553239616493     -0.11455715677186
  C   -1.22859640440172     -0.02096129542152      0.01835562839715
  H   -4.39936316810195     -0.84235989233177      0.30099730436851
  H   0.29181264324475      3.48396373763905     -0.00803897384615
  H   2.31779663904333      2.72410726159239     -0.39412476522878
  H   4.37284346053463     -1.94176736751027      0.48285624214535
  H   5.06029765176606     -0.34412762938785      0.61526648564281
  H   0.34002322053064     -1.98303576295568     -0.69427693618737
