27
Coordinates from ORCA-job ./opt_b97-3c_parallel
  N   4.77350289938641     -2.24950612842419     -0.16321610167527
  C   4.04217967679737     -1.35054998017202     -0.10451168330160
  C   3.17492307859632     -0.22555716623535     -0.03570775900131
  C   3.82260528349421      1.02557596880197      0.12526177100047
  N   3.34469163030291      2.24598344330671      0.11480807056859
  C   2.05898555554359      2.58968468369834     -0.01026323117449
  C   0.86730882872457      1.87321846863068     -0.00947377016237
  C   -0.30811875661307      2.66027106214583     -0.03581872372486
  N   -1.54477410441250      2.19883455663772     -0.02989277176685
  C   -1.69382905966392      0.87395689953375     -0.00509618095726
  C   -2.89940069849133      0.15982411227518      0.00185193603037
  C   -4.20729733081040      0.64967962803150     -0.00639653262790
  N   -5.32528804100644      0.97045299984196     -0.01182611003999
  C   -2.57348410361749     -1.22830221455686      0.01687033088861
  N   -3.45560675061474     -2.22722242390295      0.03096121729139
  C   -1.15565663392579     -1.37181674577698      0.01483243734007
  C   -0.53309674340284     -2.61883619010432      0.03664498717403
  N   -0.06025700727527     -3.68392739519263      0.05473997002714
  C   -0.58468559510583     -0.07759897598184      0.00221767076281
  C   0.72749440081419      0.41004400070797     -0.00667776336457
  C   1.80827221330697     -0.47582209820207     -0.06518373063599
  H   4.89722566899186      0.96989343876505      0.27065805356584
  H   1.93127280831209      3.66543093229371     -0.09193860608781
  H   -0.20325512563469      3.73885534976737     -0.05251548666614
  H   -3.15377284379538     -3.18523321173822      0.03984666650235
  H   -4.44255370627324     -2.04003266817799      0.03452297755051
  H   1.54963608787242     -1.52365682607226     -0.12655372911579
