27
Coordinates from ORCA-job ./opt_b97-3c_parallel
  N   -3.26535536055229     -3.09912928752395      0.27069438421405
  C   -2.44535972046623     -2.28141492340725      0.17427741194376
  C   -1.37613604966309     -1.36852762176409      0.06539288783488
  C   -0.05352979771095     -1.85052485758903      0.04189015677407
  N   0.16790924294065     -3.20629441815517      0.06174531999643
  C   1.05760933312465     -0.95314858829716     -0.04507981660316
  C   2.28848544925407     -1.52472564509445     -0.40486053006357
  N   3.52940760588602     -1.09254591756692     -0.28177645047460
  C   3.86243972431702      0.09649589459255      0.21989996961802
  N   3.22860838900831      1.23875900312612      0.30055322614212
  C   1.91853225296489      1.44540554212080      0.04568026007333
  N   1.60259492886402      2.72400710494568     -0.11427642568741
  C   0.83644818096620      0.48440434547592      0.03253263047630
  C   -0.47579831903189      0.93051614711305      0.00197226849104
  N   -0.98520589754569      2.19767743954400     -0.02048850484472
  C   -2.31905688024544      1.99275830508113     -0.01117630192560
  N   -3.20596098352164      3.00358665221230     -0.06673756311778
  N   -2.74212579205067      0.69580541802339      0.01001009736282
  C   -1.59654268899083      0.01308763269823      0.01534303253939
  H   0.94727716038382     -3.53797954978258      0.60002106845713
  H   -0.65104875812460     -3.78371202960802      0.16389775506384
  H   2.22248381841422     -2.51218434245558     -0.85186268881977
  H   4.89091442809217      0.14365644498484      0.56899380346377
  H   2.34086515096382      3.39698495590621      0.00389220809250
  H   0.61238728999388      2.99481771170320     -0.17058595495350
  H   -4.16265820078609      2.78337246480146      0.14217169963858
  H   -2.88510199768459      3.92985343351508      0.14605429690788
