32
Coordinates from ORCA-job ./opt_b97-3c_parallel
  N   5.65026222450301     -1.25026831483359     -0.00809578394097
  C   4.50671336967349     -1.02458648005497      0.00016442680437
  C   3.14205894920597     -0.68372604615627      0.00642134549342
  C   2.21759460778651     -1.73334175833822      0.06280649967584
  N   0.90985542477783     -1.77284125331744      0.08720115560298
  C   0.04608754141495     -0.70745054716903      0.05374106116841
  C   0.39152846240129      0.71562317737115     -0.01135787676486
  N   1.60759211944678      1.27334043040623     -0.05067912270803
  C   2.80111497134168      0.71032336871574     -0.04269266506607
  N   3.81641511314273      1.59389326008410     -0.08905079378891
  C   -0.66976303126873      1.65714287838516     -0.01325415073454
  C   -0.35286867775765      3.03179036998979     -0.00861088355294
  N   -0.23418390364238      4.18906463398337      0.00359294180403
  C   -2.04669076256937      1.30436696748880      0.03672207845596
  N   -3.02865481215510      2.27962455649501      0.04937768964397
  C   -2.34930957996376     -0.04145715348541      0.03143022645721
  C   -3.58809518172202     -0.75563456492065     -0.05057166402407
  N   -4.80759117359558     -0.16690202202655     -0.17083754224042
  C   -3.33410185713770     -2.13230210095460      0.01714906622451
  C   -1.94633876306528     -2.31352816673511      0.09380129026979
  N   -1.24719716703721     -3.44257617580641      0.15022572386292
  C   -1.30372469317578     -1.00726497234453      0.08659082790364
  H   2.67750927484936     -2.71795784064158      0.09524281414628
  H   3.58313557103431      2.56989854330296     -0.12230593474276
  H   4.77828369756454      1.30633001283430     -0.09064476041347
  H   -2.67569255332969      3.22236411139408      0.12932481210097
  H   -3.76670003840186      2.11237937772544      0.71510404367619
  H   -5.57194793558715     -0.76124347165057     -0.44377776676619
  H   -4.82253601451011      0.73880325546713     -0.61302857673577
  H   -4.07519711818202     -2.91450786813497     -0.02651104670951
  H   -1.68567171507518     -4.34445002448979      0.10747820158393
  H   -0.23223406196466     -3.32085878658406      0.14390766011381
