29
Coordinates from ORCA-job ./opt_b97-3c_parallel
  N   -1.69492548163267     -3.70443018886366      0.22562822180376
  C   -1.09701030599322     -2.70632261891865      0.20171612886442
  C   -0.24131982343122     -1.58819186676206      0.18062680375040
  C   1.16334094873102     -1.82563645949189      0.17667618875831
  N   1.62389471939679     -3.08876031808222      0.32376198299780
  C   2.01213050875140     -0.73036191994475      0.02317705109125
  C   3.40869773647711     -0.63084978099075     -0.06809306968154
  C   3.75990006082242      0.71135483265654     -0.22938631683977
  C   2.59036107585395      1.48610445251671     -0.22538869673907
  N   2.53910651580621      2.84838172293150     -0.36179415805646
  C   1.46882454314063      0.60400945579517     -0.04874230941512
  C   0.10885663568599      0.86760333710456      0.10347735896920
  C   -0.37843112112329      2.14267545595490      0.43714270412422
  C   -1.68629126629517      2.57722624629230      0.60436101880815
  N   -2.85242952984873      2.02884981883116      0.31852073308349
  C   -2.94658972812596      0.77475595243074     -0.16871476980671
  N   -4.14674808285369      0.49782971659318     -0.73375471443235
  N   -2.11192019847329     -0.25752689880391     -0.13485013101425
  C   -0.79959357834246     -0.29834799853410      0.06090168037592
  H   0.97752229900897     -3.85582189018798      0.24685809959161
  H   2.58076263983908     -3.28946055291279      0.10296435807941
  H   4.11612152919559     -1.44565915415935     -0.02425000415132
  H   4.76116063128586      1.09398085471577     -0.35352655145528
  H   3.36239718403949      3.27090315913293     -0.75852173465906
  H   1.68851424098654      3.22476312706924     -0.74915528067010
  H   0.36370288113452      2.86862462593089      0.73862598097356
  H   -1.77852509655779      3.57703187940449      1.02257963970472
  H   -4.89060785627953      1.15627455814985     -0.59223769645228
  H   -4.37426671270079     -0.46579452286008     -0.89921140930464
