25
Coordinates from ORCA-job ./opt_b97-3c_parallel
  N   5.64794547704938      1.07186789045574     -0.01388050254511
  C   4.55672040348904      0.67277985116648     -0.00988296576878
  C   3.23691377396387      0.18582331294796     -0.00514405204303
  C   2.86851379478956     -1.18695562770793     -0.00456490937741
  C   1.47941156785120     -1.23913603040557      0.00074240111013
  C   0.57103996657480     -2.29849482846239      0.00291865731126
  N   -0.73521780293376     -2.14137918035056      0.00816790529563
  C   -1.26056201020090     -0.87519364317814      0.01082301352723
  C   -2.64035334735551     -0.87096554265861      0.01989572841243
  C   -3.59154650482620      0.17928165489623      0.01543190666291
  N   -4.89534703020035     -0.19705638165378      0.04138809581910
  N   -3.41485601699061      1.49869268344144      0.00927380101410
  C   -2.23282322598835      2.10148138088439      0.01262317422013
  C   -0.93168889361417      1.63497013960582      0.01094307444717
  C   -0.41521237998268      0.33287383678674      0.00820969552466
  C   0.96797791500259      0.11204453903611      0.00367104425038
  C   2.07949786215827      0.97860552578348     -0.00014769873763
  H   3.55418382494803     -2.01815350569574     -0.00782554352135
  H   0.92545319948116     -3.32519205840373      0.00041807329791
  H   -3.05091773494734     -1.87320138504960      0.03073596434252
  H   -5.58570950585241      0.52352882374218     -0.06927582985070
  H   -5.17037363234348     -1.14869967576112     -0.10996916756714
  H   -2.32118257577938      3.18403878001413      0.01229904666476
  H   -0.19040110448803      2.42322581593399      0.00978322662959
  H   2.07825111589529      2.05576578983251      0.00077421348125
