30
Coordinates from ORCA-job ./opt_b97-3c_parallel
  N   -2.06295069450911     -4.16141310517836      0.37435240156235
  C   -1.75557731870627     -3.04520616681459      0.26041160497822
  C   -1.44517566517145     -1.67212901133635      0.12128079992111
  C   -0.09871611590521     -1.35923923349940     -0.03075776681192
  C   0.58797939403601     -0.15591653804546     -0.04093772530720
  C   0.01739337921218      1.17025232064556      0.10460563457954
  C   0.88647255854781      2.22519822347132      0.41339481423718
  N   2.22014439004507      2.17510720520370      0.50288277763861
  C   2.78470435879720      1.01338092794183      0.22413421021201
  N   4.10611831128250      0.77783915066616      0.21281229394404
  C   4.21018841670601     -0.53813647365615     -0.07122133585230
  N   5.42391666467347     -1.10231791916000     -0.21015328438512
  C   2.95325762612692     -1.19913069491670     -0.24003540741114
  C   2.00788263797752     -0.21408643022101     -0.06455006891868
  C   -1.35811540928274      1.48798247776661     -0.14502059473579
  N   -1.63696565722999      2.78147947877844     -0.41152674768538
  C   -2.48463098712901      0.61821812764941     -0.11622169844946
  C   -3.73338597375465      1.23459117516462     -0.33543744832565
  N   -4.76684138133112      1.74321212655262     -0.51043316852371
  C   -2.55364601769100     -0.78155011216592      0.11880168065662
  N   -3.77395731138010     -1.32335521352922      0.28358102871348
  H   0.53807913354000     -2.23231552341192     -0.07111542268679
  H   0.47107413846204      3.19058353207236      0.67420047042534
  H   6.22138260531701     -0.55716158752534      0.06655208060899
  H   5.52195263938195     -2.10015831852483     -0.21124225559591
  H   2.81719291015900     -2.24056527116904     -0.48563853812692
  H   -2.58050665293189      3.08712352126192     -0.57348730821189
  H   -0.90420374159878      3.40708757142650     -0.68331327031204
  H   -3.88632813291439     -2.32076993849616      0.33965224854180
  H   -4.60550194722799     -0.76182583615055      0.23562215422105
