29
Coordinates from ORCA-job ./opt_b97-3c_parallel
  N   -5.63802838205110     -0.96256910663361     -0.54469921938308
  C   -4.56060357976969     -0.54010832785348     -0.43312898313167
  C   -3.23453946788942     -0.09079388650751     -0.24704992372559
  C   -2.94002150117473      1.21782486570673     -0.64224021232452
  N   -1.95119081734913      1.98099911101273     -0.25377099442128
  C   -0.85843092576625      1.61557798279877      0.39307800837046
  N   -0.33570819858431      2.49438549896619      1.23888188865346
  C   -0.16525536317354      0.34843451856938      0.17725063452136
  C   -0.88179672473435     -0.88159770151548      0.23456602495245
  C   -0.12904211927066     -2.08306314137297      0.15874393865395
  N   1.18028922661739     -2.15446651748624      0.04138584778542
  C   1.85306139426198     -1.00713097995401     -0.02299953448300
  C   3.24919075673070     -0.81810962228622     -0.15190657116333
  C   4.22156335466988     -1.82695325342110     -0.20988218982876
  N   5.03468327068755     -2.65560367522317     -0.25420912666366
  C   3.47817289650807      0.56273990873685     -0.23283659538206
  C   2.26278990525982      1.26399069916673     -0.13748390997696
  C   2.13835761544527      2.65038977492825     -0.26839162086311
  N   2.00332435011100      3.80484672155019     -0.34796832775328
  C   1.21661612615514      0.29857385439645      0.01079701401433
  C   -2.31373134086133     -1.00533746226957      0.33819099399773
  N   -2.81342250229145     -2.12710390396221      0.87116747077911
  H   -3.67694386409523      1.71123090726177     -1.26611146786416
  H   -0.67444474718806      3.44285644938922      1.22281761898356
  H   0.56980626080385      2.33926398002250      1.64500398404889
  H   -0.64704106924609     -3.03263467343498      0.10511013255092
  H   4.44159995885298      1.02538243878629     -0.36774778813249
  H   -3.80069443788733     -2.32051846772801      0.83874041294200
  H   -2.22355064557096     -2.79725134554340      1.32640731564268
