31
Coordinates from ORCA-job ./opt_b97-3c_parallel
  N   4.88189369745159     -1.75858951893282     -1.37191359054717
  C   3.92822347304652     -1.23934998463211     -0.95935889617074
  C   2.75716211059834     -0.61663541750949     -0.45296092984666
  C   2.84446866086548      0.73223289709047     -0.13709487265074
  C   1.85532814807575      1.58383778650115      0.33079798548841
  C   2.29782569315499      2.87419484010984      0.71050017673759
  N   2.60972840366428      3.94641640844847      1.03677164932651
  C   0.43224468329044      1.37455649159543      0.36130490573078
  N   -0.30010442062098      2.45916099136004      0.67107258134419
  C   -0.27426159692412      0.16755812508018      0.08354034631463
  C   0.36215714270390     -1.16078118591029      0.16982517191845
  C   1.66010278352018     -1.45292473504285     -0.19110489876168
  C   -0.46514273929221     -2.30547324477747      0.46853358203399
  N   0.14350510208092     -3.51443810396005      0.74945775811437
  C   -1.84211666640391     -2.23272333764555      0.38214981344624
  C   -2.44948493194952     -1.04200621885222      0.01968731307753
  N   -3.75595591674759     -0.83208993522829     -0.16044997220860
  C   -3.86030262262270      0.49919918959540     -0.43976648077856
  N   -5.08126154356182      1.02346588757523     -0.69051974742531
  C   -2.62929050877672      1.18163159028228     -0.39457982950616
  C   -1.66243477963552      0.19636051699983     -0.11580593772241
  H   3.82554211143845      1.17740857488995     -0.23575229810449
  H   0.15159977254289      3.30398926185478      0.97757667861130
  H   -1.27511119717353      2.34059137238299      0.89574302578838
  H   1.86796133221442     -2.50666745684999     -0.32318913973350
  H   0.91161496086664     -3.49082734625102      1.39802078862835
  H   -0.48860458712909     -4.27242649262666      0.94192796338306
  H   -2.45710157874883     -3.10018140401959      0.58568572192843
  H   -5.81337964223043      0.36624511317942     -0.89698172332815
  H   -5.14670609061536      1.91799670579857     -1.14025336009043
  H   -2.48076029318267      2.20635158649526     -0.69011761509806
