28
Coordinates from ORCA-job ./opt_b97-3c_parallel
  N   4.50784418194673      1.20939666831088      0.32174822254489
  C   3.37846758258967      0.45182880049172      0.12210531516416
  C   3.53690894180870     -0.92898039182908      0.00909761639250
  C   2.53368392837476     -1.87645413858171     -0.16003244551440
  N   1.22292797658815     -1.81017948211935     -0.18879404019475
  C   0.43203477259200     -0.71989901645453     -0.08194994138392
  C   0.84765726027218      0.70718686180944     -0.03211706521078
  C   2.16324269899566      1.14864151827273      0.07617039918491
  N   -0.05570643670571      1.71347547384348     -0.08433590306125
  C   -1.36274069594470      1.45754928747564     -0.07537250530848
  N   -2.19069472837231      2.55032006028503     -0.16048259956206
  C   -1.86977676698114      0.16303570860304      0.04420571915985
  C   -3.16272153022195     -0.37442053471718      0.11790426056908
  N   -4.34548609919334      0.34500062581726      0.19456616977573
  C   -3.04360191683334     -1.79262477208838      0.05946025745523
  C   -1.70565054548448     -2.13113854983886     -0.02860202220041
  C   -0.94069780211474     -0.93434067639280     -0.02482512652229
  H   5.39189056754346      0.79386208923909      0.08856781759930
  H   4.45031294243871      2.19167155335260      0.12017890143950
  H   4.54932476777443     -1.31562459573369      0.03453926269338
  H   2.90523325016151     -2.89311984949226     -0.28332645127414
  H   2.23288001404468      2.22774776864962      0.14447352694951
  H   -1.70868054558222      3.38841420115101     -0.44503647037551
  H   -3.06643068632179      2.39895196035485     -0.63523833699295
  H   -4.29800300161047      1.14848936586969      0.80350684272755
  H   -5.14945066713151     -0.21896763235530      0.41976964885644
  H   -3.87414099456306     -2.48250401885189      0.09919520373565
  H   -1.29333128927017     -3.12490653677065     -0.07136819314688
