33
Coordinates from ORCA-job ./opt_b97-3c_parallel
  N   3.50311020061297      2.92550201501463      0.31458203590568
  C   2.84017124264735      1.97292100461476      0.20560624920925
  C   2.08657401991979      0.79248307848599      0.05908405855062
  C   2.83195316032943     -0.31985892752760     -0.41634978692149
  N   4.07053481829448     -0.08580466288472     -0.92298682671466
  N   2.51891031164167     -1.61297323429713     -0.42401430627706
  C   1.41612003199734     -2.16397065755720      0.04835108470048
  N   1.51991609119673     -3.50653024514550      0.21390765091839
  C   0.14697913878988     -1.56279127543229      0.32680933299036
  C   -0.77307319806953     -2.41680226741148      0.94032670840380
  N   -1.50758840541227     -3.18582892958773      1.42616701746844
  C   -0.26578274727700     -0.21559352357734      0.07841495152017
  C   0.66642868559777      0.91203209565644      0.20424081198595
  C   0.14122179645363      2.16908538788590      0.46768865001287
  C   -1.22721134548313      2.46385178021209      0.42079205918681
  N   -1.65172304757389      3.72981363491095      0.71407443016508
  C   -2.10445111103188      1.44332528992812      0.05987668775722
  C   -3.47107001612972      1.46450442355747     -0.28063920260768
  C   -3.85827366934445      0.19968055047932     -0.69245259087660
  C   -2.75328450355860     -0.67018044858930     -0.59352556630514
  N   -2.77672386237527     -1.94609956657625     -1.04101647334943
  C   -1.61159125504727      0.10552669843908     -0.11382990223472
  H   4.67015751734267     -0.88390938612577     -1.02453745816266
  H   4.49650334188416      0.82001404014081     -0.84463863331937
  H   0.80459948929521     -4.03537853433143      0.67852323454812
  H   2.44059998238264     -3.89882903164451      0.14454435786286
  H   0.82574042010258      2.98317916440124      0.65918889684985
  H   -0.97192975079230      4.46763929835713      0.65719360862230
  H   -2.57092973392111      3.99816446085353      0.41306129973098
  H   -4.12746877431038      2.32131627866535     -0.23487249383678
  H   -4.84112985934287     -0.09196618609712     -1.02802359510698
  H   -3.67593167137605     -2.27765230885368     -1.34863826827294
  H   -2.24401865674298     -2.65008431036342     -0.55395285440326
