30
Coordinates from ORCA-job ./opt_b97-3c_parallel
  N   -3.86333202425162      3.49421984713488      0.89821156571285
  C   -3.20701813001899      2.57530777549549      0.63158654253366
  C   -2.39771765699143      1.45078229603008      0.30592631739330
  C   -3.05113615113478      0.22773381803167      0.19891206198068
  C   -2.52748545979830     -0.99879045861646     -0.17596027235672
  C   -3.48675439661662     -2.02252678018840     -0.38912392720226
  N   -4.23526050209996     -2.89158117745099     -0.57603539795095
  C   -1.16312233674760     -1.38205586665237     -0.38279511012369
  N   -0.97821657662944     -2.56998466793642     -0.97155475170363
  C   0.01383183746872     -0.61873138922457     -0.01841774621728
  C   1.22151025367656     -1.29972033413462      0.23421461621921
  N   1.23998453651480     -2.67796018131586      0.48544192893217
  C   2.47308935187019     -0.62629487362739      0.19418507388113
  C   3.65044464643165     -1.35315070399132      0.48962045073372
  N   4.55723555069913     -2.03055966527761      0.74733380407216
  C   2.53240510644655      0.71413973455951     -0.13424676282321
  N   3.62744236192617      1.49404846174763     -0.24716248330758
  C   3.13149311422361      2.72550076663382     -0.47401489774314
  C   1.72091902835239      2.77791659805914     -0.49109448636134
  C   1.29587014707286      1.46783056679336     -0.28673092615554
  C   0.03390190067008      0.84126909340259     -0.11173068975778
  C   -1.04804659706073      1.69975459443031      0.06786207003370
  H   -4.11900680195430      0.24373472332557      0.36575690987599
  H   -1.76386783560543     -3.16660381879112     -1.17292464121263
  H   -0.05632857542686     -2.98803884841774     -0.95898700107241
  H   0.57584352862068     -2.97621771931734      1.18403004310941
  H   2.15855705162755     -3.03100801008579      0.71089435704285
  H   3.80046908472169      3.55856066698986     -0.63595976212886
  H   1.12537219938478      3.65770734252147     -0.67164995122342
  H   -0.78227276616980      2.74635049307153      0.08696579702073
