24
Coordinates from ORCA-job ./opt_b97-3c_parallel
  N   -2.10667145372951     -3.24353147807158      0.16534964377409
  C   -2.07878188913030     -2.08062464183848      0.10941241178406
  C   -2.07017572156668     -0.68273103115261      0.04635181088347
  C   -3.23569705418288      0.10847631647289      0.08566283486943
  C   -2.89085559922000      1.45961900177735      0.06234693279146
  C   -1.49511243319999      1.54844220957868      0.01661201872479
  C   -0.63725784038896      2.64084018757799     -0.01903854138460
  C   0.72516104576761      2.44780561192693     -0.05266005136178
  C   1.30731015066384      1.16433326479039     -0.04592506883840
  C   2.70758910428887      1.11338192413589     -0.02811993687071
  C   3.57495202664824      0.04235733044234      0.07942636803976
  C   3.25060766975738     -1.30465467856190      0.13128692611122
  N   2.09137876640491     -1.89537028431037     -0.13456902282969
  C   0.91646846056345     -1.33256601546138     -0.29598868193298
  C   0.43599818508467     -0.01210128477715     -0.06998032939940
  C   -0.94565518390880      0.20034760851378     -0.00597935027015
  H   -4.23486835589245     -0.29354385548708      0.13769938945473
  H   -3.57749323858976      2.29065645453801      0.08248637169310
  H   -1.03926701165469      3.64622532078323     -0.01475115528695
  H   1.38418678183698      3.30476379872456     -0.06899223825495
  H   3.18573182696595      2.08619543019381     -0.04292542351194
  H   4.62812860449188      0.28090964288042      0.16671438112299
  H   4.05531169589569     -1.99657135981549      0.35982850714678
  H   0.16099929079456     -2.03418980886019     -0.62734997925434
