28
Coordinates from ORCA-job ./opt_b97-3c_parallel
  N   -4.00442335445428      2.49071377943439     -0.54626238452506
  C   -3.09697080797638      1.78609319199032     -0.37991064807949
  C   -1.99017442388243      0.92438122045652     -0.17047026139330
  C   -0.71039395000067      1.46909472725294     -0.10117972823958
  C   0.43669186620391      0.67740437306977      0.06674841927120
  C   1.68745949576915      1.35719342207906      0.27191277161076
  N   1.63365515246529      2.64625065273653      0.69630628124541
  N   2.92928762723912      0.96506806845176      0.00298608828816
  C   3.39237405303056     -0.24920213347705     -0.18728515029284
  N   4.69479534061505     -0.31866708221482     -0.57790193174476
  C   2.73050820441873     -1.48063906800598      0.07333313655701
  C   1.39458783814406     -1.66150196928200      0.22866489171142
  C   0.30290903237986     -0.75620946351435      0.14281681026535
  C   -0.99101097090642     -1.30788861015858      0.13089681969819
  C   -1.46587992490825     -2.62897619216317      0.21308134422099
  C   -2.86117856853014     -2.59144965043875      0.11711196809555
  C   -3.30623950369762     -1.26611104823521     -0.03462983947594
  C   -2.17827434384910     -0.45246939557061     -0.02915918378575
  H   -0.60904631918896      2.53298040877163     -0.24693807738492
  H   0.83559581714569      2.97182218908424      1.20855634744128
  H   2.51465909222314      3.09557819783069      0.87137347739424
  H   5.12629285425976      0.54009399510475     -0.87139819136732
  H   5.04446955894755     -1.16554820515220     -0.98604795741804
  H   3.35855499430119     -2.36211211324037      0.11645941359467
  H   1.09822644886561     -2.68940159244885      0.38711763257038
  H   -0.88124175134863     -3.52719682037822      0.33119462513193
  H   -3.50347290418253     -3.45929593672661      0.15385449795001
  H   -4.32700926538361     -0.93694838765589     -0.14135301313964
