34
Coordinates from ORCA-job ./opt_b97-3c_parallel
  N   5.25755612989994      2.31017067439208      0.79014745339337
  C   4.27485549370801      1.73592011206298      0.55056694141876
  C   3.12035076794185      0.97877158749689      0.23945198861149
  C   1.92952998409177      1.70110991707297      0.13066540340197
  C   0.60838645096536      1.35645662532067     -0.09561008972535
  C   -0.32038920025648      2.43593798398575     -0.24948089298530
  N   0.13695425108370      3.73011273751490     -0.40998557543806
  C   -1.68862328668585      2.20641892050318     -0.17986842840443
  C   -2.18224403701998      0.92966277431031     -0.00713948951841
  C   -3.50901089674900      0.46948949159937      0.08182312780517
  C   -4.67626613981786      1.23195290028224      0.07325688912383
  N   -5.66765629230948      1.84387658763301      0.06733316798533
  C   -3.46213705895741     -0.94841087203999      0.17728043754579
  N   -4.51987724568738     -1.75690148073241      0.28556194565242
  C   -2.10171591688204     -1.37033474035725      0.14177714708012
  C   -1.75049761317412     -2.71373922065974      0.25688128886043
  N   -1.52558144840347     -3.85372065957494      0.35738126686582
  C   -1.28689681567024     -0.21481796668201      0.02371969246986
  C   0.10227071424044     -0.01951892849586     -0.07409080751194
  C   0.91780769410630     -1.14713051374747     -0.19695059188274
  C   2.29094067128688     -1.34490496162136     -0.23855721622483
  C   2.72338443301197     -2.67406498207147     -0.47522961521094
  N   3.15849101725348     -3.73488186261994     -0.66563555665367
  C   3.33940356025599     -0.40397597684828      0.00280825821180
  N   4.59760910071567     -0.85996116060171      0.02143241481070
  H   2.08380076432637      2.75912195672746      0.29724124494301
  H   0.89973973553843      3.86410804252639     -1.05137135713845
  H   -0.58412699825925      4.41789758663269     -0.54591543035082
  H   -2.37837111785940      3.03553517272750     -0.28013543814074
  H   -5.44949822182152     -1.38241580491481      0.34082853892793
  H   -4.40192076634820     -2.75085004165984      0.36729636555565
  H   0.37303436672731     -2.07435684683911     -0.29934467575365
  H   5.36908211143036     -0.24198400533104      0.20767417425057
  H   4.79611276392011     -1.83672910749375     -0.11553056867594
