29
Coordinates from ORCA-job ./opt_b97-3c_parallel
  N   -5.54033873528420     -0.15694674008631      0.18667909454006
  C   -4.38265653667274     -0.27652354400283      0.15890852715566
  C   -2.97491115464405     -0.35984631340209      0.10089691823135
  C   -2.40899528721751     -1.62774950799658      0.23474956766331
  C   -1.10513402593316     -2.05533898279696      0.17057010165550
  C   0.10512764087520     -1.35172865101192      0.01621153321777
  N   1.18356221450239     -2.14194211607102     -0.06632214373798
  C   2.41956845876761     -1.62721906364357     -0.14350301183276
  N   3.41187150402160     -2.52932806984396     -0.32293436212351
  C   2.64496510588776     -0.24956894591799     -0.05983355536431
  C   3.76578214644694      0.58378245458928     -0.03655135017490
  N   3.41909339043459      1.88184313364636      0.11302935251132
  C   2.07271855013011      1.91884541964539      0.17304726203347
  N   1.42803263313475      3.12096192946253      0.32898593464767
  C   1.50409559075377      0.61648303580035      0.05101252193122
  C   0.19655549044432      0.11720981487497     -0.01186862466796
  C   -0.88252182881771      0.99865809916755     -0.17133592236079
  C   -2.26601037797457      0.85117131533502     -0.14700009901694
  N   -3.01092252673843      1.98557295635718     -0.31735769962247
  H   -3.13315871652895     -2.41777997969605      0.38942900996924
  H   -0.95768177255894     -3.12320907118660      0.25373698704605
  H   3.17250991529984     -3.49554841879609     -0.18516086824757
  H   4.36562691770596     -2.26208104516463     -0.16697311547826
  H   4.80849290364613      0.31020281635598     -0.10808456048392
  H   0.60707356399384      3.10084040245817      0.91394365399885
  H   2.06638743904465      3.85761821003176      0.59057393795844
  H   -0.57439878912070      2.01488269249373     -0.38132127792711
  H   -2.56538885277423      2.78975510740047     -0.71946451916608
  H   -3.99358093312476      1.89733215929837     -0.51146271605553
