32
Coordinates from ORCA-job ./opt_b97-3c_parallel
  N   5.18598081787596     -0.89278275417628     -0.71863875330436
  C   4.10111046667797     -0.54514075132027     -0.47726850770178
  C   2.81091493154810     -0.05727953821761     -0.17193415641183
  C   1.78646253214853     -0.99207064651217     -0.11167483755865
  C   0.41309755708918     -0.91150083989738      0.09770111302268
  C   -0.25053515783648     -2.18991562410238      0.21166052785897
  N   0.52554314343018     -3.34494160352728      0.36288304784094
  C   -1.61848675013985     -2.30305368614875      0.11566886092144
  C   -2.40178307863151     -1.16582956199496     -0.05722432946025
  C   -3.76855387241541     -0.94681023685942     -0.16265781173284
  C   -3.92018186204843      0.45680727356444     -0.19945217786201
  N   -5.09605638764365      1.15080794940884     -0.24983430145096
  N   -2.74684849008738      1.11459849016919     -0.11884486132900
  C   -1.77556825987649      0.14846920931082     -0.03687055868852
  C   -0.39356864900606      0.30223703366697      0.07465801514931
  C   0.16995970264861      1.63591818622726      0.20015206046634
  N   -0.71291151803368      2.64376584378346      0.28024720444043
  C   1.51673335690642      2.01902573589293      0.29784013014985
  C   2.70299487145338      1.33730494974106      0.09787372708473
  N   3.86559136698907      2.04589020193342      0.19915562328586
  H   2.13134069236011     -1.99931643768826     -0.30134308440679
  H   -0.03250331920430     -4.17937184221584      0.44179311342328
  H   1.19131884085012     -3.30486222719017      1.11842677284216
  H   -2.08492205097689     -3.27694091561584      0.21167357761436
  H   -4.55436329729967     -1.68399552237358     -0.18904864872879
  H   -5.88090712660389      0.67145620268941     -0.65443703220152
  H   -5.00890557312245      2.10936732480132     -0.54267971494769
  H   -1.71565593862013      2.43294301962027      0.15619660607478
  H   -0.38371702967011      3.59104702340989      0.30965569821220
  H   1.64726099417339      3.07800071756844      0.49742321445559
  H   3.82604720059808      3.04556613756084      0.12610438069964
  H   4.71939477796770      1.62298165389145     -0.12257491405615
