30
Coordinates from ORCA-job ./opt_b97-3c_parallel
  N   2.90101938516233     -3.65441225661129     -0.04281132049004
  C   2.61103450714832     -2.52720186436042     -0.02179662818175
  C   2.24224347372403     -1.16283808572370      0.00408369105156
  C   3.31883578134118     -0.27855941933195      0.07539192160393
  N   3.41269920594248      1.03459353478763      0.08905264188778
  C   2.34783970266802      1.86442360128853      0.03612015755252
  N   2.73829912312596      3.17065409000157      0.00810421026841
  N   1.03579376364833      1.68701919324010      0.04437411938086
  C   0.33766773600077      0.51858110061273      0.04113062114970
  C   0.83459479176118     -0.85368080684629     -0.01056060915110
  C   -0.07785112563144     -1.90533434008453     -0.03224222214222
  C   -1.47297728803656     -1.75215576013752      0.00489223874791
  N   -2.30952699308143     -2.85750200543285     -0.00604317406983
  C   -1.95910190447157     -0.45660607639260      0.02050829726963
  C   -3.25302597567808      0.14274237823360     -0.02745257249052
  N   -4.43917572823702     -0.50421874718970     -0.12562633787605
  N   -3.20446507959553      1.48865804813546      0.04626569331092
  C   -1.89068037791428      1.79999216342214      0.10481873517973
  N   -1.43373998985364      3.04175708903977      0.17783258176566
  C   -1.04654131447856      0.63300939281663      0.06834705021292
  H   4.28747296330465     -0.77011317857532      0.11624958277919
  H   2.07390389728447      3.86047477745782     -0.28879103203578
  H   3.70990720125569      3.33924694836848     -0.17881283894911
  H   0.31616906106463     -2.91258327609380     -0.04508158113469
  H   -1.83265292980185     -3.73573426296998      0.12264458690379
  H   -3.09975709757192     -2.78779609866472      0.61614404085539
  H   -4.43503787188315     -1.39183516670069     -0.60054925227256
  H   -5.22656546650621      0.08527853921268     -0.34286190072814
  H   -2.06407582494795      3.82300229536881      0.20777629071854
  H   -0.42244588224294      3.13191746482923      0.19603796028336
