27
Coordinates from ORCA-job ./opt_b97-3c_parallel
  N   -1.09545034164257     -3.90220530427990     -0.02324522612178
  C   -0.58261878785036     -2.85803313862601     -0.01463620397253
  C   0.03672785278787     -1.59027319076414     -0.00500704505360
  C   1.42855672089432     -1.54683036367380     -0.01083581830024
  C   2.07133922403666     -0.33196957387098     -0.00429673754004
  C   3.42543480921664      0.07902675140984     -0.00310451943207
  N   4.54400492672825     -0.67756694645316     -0.04697107033029
  N   3.52898037177644      1.44010614373885     -0.00266077217130
  C   2.28051397858707      1.91721399049899     -0.00022482610336
  C   1.30512849472863      0.88862142795317      0.00095174692544
  C   -0.09440223748431      0.89823488234606      0.00253278670490
  C   -0.78465829424888      2.12808278396726     -0.00375149638580
  C   -2.12865313251594      2.42731918896224     -0.00173462441509
  N   -3.23487046895351      1.68800707684727      0.00819798231062
  C   -3.22668148645956      0.35596116546476      0.02838909495161
  N   -4.46999646656337     -0.18902658050496      0.07528397213893
  C   -2.15095354111032     -0.56417705288816      0.02808926213125
  C   -0.77639391657139     -0.39715241118372      0.00728509512233
  H   1.97163219306669     -2.48323389937127     -0.02546159015871
  H   4.49828332436858     -1.64347655301220      0.22092300684336
  H   5.40890278386649     -0.20344237167562      0.14819139516745
  H   2.11873544373797      2.98470399449049      0.00601423530424
  H   -0.15114505235943      3.00473788608264     -0.01587200928858
  H   -2.34680582663000      3.49193499750107     -0.01370163643018
  H   -5.24632446929382      0.43575226549860     -0.04731341807815
  H   -4.61800281484996     -1.16861048141328     -0.07800313590552
  H   -2.47341494926219     -1.59743329564402      0.04790917758711
