31
Coordinates from ORCA-job ./opt_b97-3c_parallel
  N   2.46677598853413     -3.61098863191396      0.09687991341613
  C   1.92852677033320     -2.57751571731087      0.08601780110968
  C   1.36772735294589     -1.28834572153320      0.07642726493211
  C   2.27691422818836     -0.19926979219447      0.17931186702021
  N   3.59794125998398     -0.44040306038319      0.38130996795865
  C   1.76530162526698      1.09107727390242      0.09932342477496
  C   2.39490677287691      2.34378083006771      0.09865659035962
  C   1.41877033944129      3.32531397717892     -0.08599991246545
  C   0.16154684665257      2.70996170619473     -0.18967485443573
  N   -1.03642781971850      3.38751777503735     -0.38316780068376
  C   0.34133197366012      1.30068055056042     -0.05089922758108
  C   -0.58466619282187      0.24290906102384      0.00083007990930
  C   -1.94323387398418      0.54514486006772      0.19552958254322
  C   -3.11432243271020     -0.20581599182261      0.15006054642605
  N   -4.30139475304849      0.47695945927522      0.36623828692852
  C   -3.22184081211230     -1.56557480526447     -0.17387284038523
  C   -2.18236113155597     -2.44722239794160     -0.35724713476609
  C   -0.81133029517543     -2.26322727375103     -0.26653759363495
  C   -0.03682402822675     -1.11744965759241     -0.05245162107947
  H   3.95007589822329     -1.36877295397531      0.22048237309580
  H   4.24647129818659      0.30494448706075      0.21053358554253
  H   3.45188099113804      2.53752578126429      0.20254982186187
  H   1.59651273363999      4.38781430586165     -0.16238375004237
  H   -0.89733464312466      4.33277859793547     -0.70676755962257
  H   -1.68337704292418      2.90687124330762     -0.99257637616296
  H   -2.11198077336446      1.57834951848172      0.46786729802330
  H   -4.22518519046523      1.34820798996191      0.86291834110521
  H   -5.07673195899458     -0.07856635922488      0.68413014605251
  H   -4.22481607944091     -1.96578148694572     -0.26471872833784
  H   -2.48031781570798     -3.46583722649885     -0.57738377589183
  H   -0.23975730079558     -3.17386648602905     -0.39019161797030
