29
Coordinates from ORCA-job ./opt_b97-3c_parallel
  N   5.19318431742159     -0.63006556356418     -0.54580478272027
  C   4.07649492909468     -0.35969363482965     -0.36608117551320
  C   2.74335241399599      0.05394867110312     -0.12957660161397
  C   1.77948142682402     -0.95964869297503     -0.08245898827608
  C   0.40687859587349     -0.97189819609614      0.09346648757987
  C   -0.23395274101331     -2.26604854271017      0.17363232710495
  N   0.53270123121021     -3.41098392354518      0.31500784434248
  N   -1.53421251764901     -2.45263634031404      0.06376903747205
  C   -2.32142920693903     -1.37746994583246     -0.07013343296293
  C   -3.70630309007498     -1.33632296655932     -0.20658754442815
  C   -4.09095439641463      0.01043238280985     -0.21536005717504
  C   -2.96578961015695      0.84591153625367     -0.08334358840596
  C   -2.99973040544506      2.24136504482687     -0.06821787224147
  N   -3.00171527515238      3.40744797374183     -0.04970239815004
  C   -1.81669029682013     -0.00376413466862      0.00048751314468
  C   -0.44898085465675      0.20647399031649      0.10233193221650
  C   0.04245738912506      1.53280042715751      0.22945329018690
  C   1.29562774637835      2.06121844490057      0.24970175035743
  C   2.55625426848261      1.44329844380462      0.06817636423038
  N   3.63415528967026      2.24868280536939      0.07728128563396
  H   2.20850066303622     -1.93886395544796     -0.24823074891130
  H   1.24530846658039     -3.38386340095493      1.02567047493929
  H   -0.05429042690132     -4.22557925515801      0.40601976526082
  H   -4.35652921001594     -2.19174511121820     -0.27917337361883
  H   -5.10120745467416      0.37685983217677     -0.30889340189568
  H   -0.73434881411830      2.27620852392909      0.33357921729812
  H   1.33551957419947      3.13576783716608      0.38643353635139
  H   4.55844490948387      1.88915094902080     -0.08915371656882
  H   3.53001247345595      3.24261644139601      0.15849466706189
