26
Coordinates from ORCA-job ./opt_b97-3c_parallel
  N   5.53468010876019     -0.21693317189835      0.38203698680871
  C   4.38976003292213     -0.06470874494626      0.26618955117440
  C   2.99230413818283      0.13562356036431      0.12131117415870
  C   2.50601004326171      1.43065599651664      0.39542041510003
  N   1.34850373476560      1.93832400015295      0.07864510861165
  C   0.27643231341348      1.34205158842480     -0.42964841996335
  N   -0.48050195591144      2.09259110834910     -1.22177486810388
  C   -0.15463388158311     -0.02282593163434     -0.14578743118827
  C   0.80840247515739     -1.09008178439701     -0.21793088876491
  C   0.31012079793066     -2.43015981453644     -0.26330588914863
  N   -0.94652584271737     -2.77716668407077     -0.14617571990081
  C   -1.84127295870272     -1.78991739038937      0.03218249005933
  C   -3.22162300718009     -1.89693482720023      0.17657195781065
  C   -3.74113015346878     -0.60494413494383      0.30789997790621
  C   -2.71088938897006      0.35077441516572      0.21937887435649
  C   -2.87630291018195      1.72580524470513      0.39649399093029
  N   -2.98204954899570      2.88135979496673      0.50818397283249
  C   -1.48105834229524     -0.36631219401786      0.04094668680563
  C   2.19860404897262     -0.96360121811625     -0.19180725153098
  H   3.18863845475845      2.11850317351251      0.88282468083175
  H   -0.30217507305093      3.08215738993263     -1.26736376555580
  H   -1.37213817645932      1.76679299039193     -1.54826589492169
  H   1.03194756013764     -3.23362769824597     -0.36421078583028
  H   -3.77802788977658     -2.81888378579007      0.19068849341977
  H   -4.77742874125254     -0.35436625073741      0.47022307241292
  H   2.73950050788281     -1.89260494525811     -0.32498012151014
