24
Coordinates from ORCA-job ./opt_b97-3c_parallel
  N   4.01831115686802      0.95266809566195      0.66825829374456
  C   2.95566418204994      0.34558803750024      0.09435648498649
  N   3.23760567687939     -0.87419490897831     -0.41424167638720
  C   2.30310338934484     -1.78448138326166     -0.58935620373775
  C   0.93804314798670     -1.77193580558198     -0.31392553546217
  C   0.10952472906424     -0.69219806159865     -0.02449860702613
  C   0.59001869199176      0.71998154427786     -0.10706028943989
  N   1.85399949922542      1.08445277387599      0.05063209442259
  N   -0.26254764639672      1.73386236959198     -0.28786559736732
  C   -1.58288902606975      1.53371809255580     -0.21946351796766
  N   -2.34467773151528      2.60703513287642     -0.48583218174740
  C   -2.14321518538198      0.28283074615457      0.12215326875742
  C   -3.42112012082714     -0.22279899942070      0.33647016021417
  N   -3.39050079052452     -1.57013092928411      0.55845090666602
  C   -2.10982467724832     -1.94642837622363      0.46400010358035
  C   -1.26160066905633     -0.84234022030717      0.20028493993008
  H   3.95342627646677      1.93335941689498      0.87042825107176
  H   4.92209202610626      0.53205956359213      0.55432717728157
  H   2.68317229059523     -2.72018648804900     -0.99161476736922
  H   0.44429254968679     -2.72818357834079     -0.42967347987263
  H   -1.88836507472858      3.48801535957268     -0.64228856105821
  H   -3.34176440007027      2.58018905732174     -0.39261131150093
  H   -4.36481903379633      0.30334199389625      0.35168898227629
  H   -1.82576565605012     -2.97691414292660      0.61834168630521
