31
Coordinates from ORCA-job ./opt_b97-3c_parallel
  N   -4.85441120749770      1.77678655747592      0.22638536455628
  C   -3.90396861763261      1.10646041428694      0.14241783113151
  C   -2.78852344617430      0.28055094086421      0.03226618528187
  C   -2.79783360768031     -1.12567237963147     -0.15346813935714
  N   -3.89898520812147     -1.92157760624887     -0.19431252271813
  N   -1.55568729746730     -1.63770750413227     -0.24431473926947
  C   -0.68841029663169     -0.58299442001356     -0.12045207296009
  C   -1.42009429677476      0.63955771293310      0.05314250673235
  C   -0.74720406017377      1.82764534114798      0.23996478638112
  C   0.64087858371138      1.85421553626041      0.18897232054620
  N   1.27638100735601      3.11607570937712      0.28720043975996
  C   1.39714219167597      0.67488121024299     -0.01232287382658
  C   2.81070941351418      0.80238964485718     -0.35169942847316
  N   3.17353131363903      1.82432454139080     -1.15667010365489
  N   3.81994571879468      0.04761905523814      0.04573990031082
  C   3.73436646312538     -1.19367548021664      0.50182504288894
  C   2.71340185692463     -2.10035251932584      0.40770590658603
  C   1.38556269745595     -1.88688021532756     -0.01873261476715
  N   0.65279410390966     -2.97901482073710     -0.26144281298017
  C   0.71740796108905     -0.60170591758289     -0.07936692410329
  H   -3.77189545438920     -2.82337686327819     -0.61934727347567
  H   -4.77240293030454     -1.47249959394072     -0.41006425554374
  H   -1.29658403853597      2.74369046379583      0.42282768439554
  H   2.03975477908411      3.12379355299289      0.94882725068953
  H   0.61899117707879      3.83640256118486      0.54303103364262
  H   2.54700437002852      2.60998084844340     -1.25799923895624
  H   4.16201295340715      2.00121168460201     -1.21991204117686
  H   4.65958607335885     -1.55955805732192      0.93810711039965
  H   2.95978438799054     -3.11847541447729      0.68592587856442
  H   -0.37122601974021     -2.86910659072897     -0.34179981287563
  H   1.05522531207991     -3.88255189163047     -0.08500166052866
