26
Coordinates from ORCA-job ./opt_b97-3c_parallel
  N   -1.50668860954055     -3.39872702899187     -0.85845114411665
  C   -1.62795585161849     -2.27719584578396     -0.57943520531537
  C   -1.83817039133861     -0.91550559021286     -0.24379529728045
  C   -3.17616900508547     -0.52086491780587     -0.34968804698750
  C   -3.76616276944895      0.67444498886007      0.00125806512587
  C   -3.09901836152435      1.76353839081648      0.56256013405705
  N   -1.82533203940936      2.05724410724229      0.56624205552801
  C   -0.76476699761377      1.35353245924040      0.13806891394684
  N   0.29820186193655      2.09987561151482     -0.15032494575948
  C   1.51556395783996      1.55312506332122     -0.23592156763834
  N   2.52228014604764      2.37922259171970     -0.63105918147821
  C   1.73110017012492      0.22626109233841      0.13251661793914
  C   2.85255201428814     -0.59382807730762      0.31272132966669
  N   4.17127863948369     -0.25042416265174      0.28323293116952
  N   2.48717280312141     -1.89695788700792      0.51319856545605
  C   1.15660793490735     -1.93754253150473      0.45842616010563
  C   0.58991396986893     -0.64442503269707      0.24326493987694
  C   -0.69618606877684     -0.12801703142267      0.09285043300044
  H   -3.84579857409013     -1.29527261987250     -0.70174848426774
  H   -4.84420305802077      0.73772373665214     -0.06398564180558
  H   -3.72140516182924      2.50913360743139      1.05301607908643
  H   3.31580049036425      1.96210982173865     -1.08746455469861
  H   2.22110429610682      3.26501359964291     -1.00366697981082
  H   4.78622164999507     -0.97940574666173      0.60928773068751
  H   4.40868345974375      0.66417880450142      0.63101447950330
  H   0.63711222606911     -2.86936414089989      0.59967587881046
