29
Coordinates from ORCA-job ./opt_b97-3c_parallel
  N   6.23289186838988      0.31829031426589     -1.00346494142751
  C   5.11645428973744      0.09690973079920     -0.77097995415488
  C   3.76463785923152     -0.16708262647288     -0.48625430257454
  C   3.21442653342514     -1.43343272931714     -0.20355477591956
  C   1.83423158910016     -1.26043414043793      0.00167301100955
  C   0.85569117527247     -2.13205757173634      0.44098071350204
  C   -0.46378359249611     -1.69841668228967      0.58665559386736
  C   -1.40402159262078     -2.61563584147965      1.10857334615502
  N   -2.11538589908828     -3.38247268719187      1.61415132615079
  C   -0.83952623818474     -0.36436905245751      0.24004687565803
  C   -2.14297909425358     -0.06096880098506     -0.16004178118345
  C   -3.02947284480557     -1.10941396541486     -0.49789165380120
  N   -3.82618711894309     -1.85754060701910     -0.89542071658692
  C   -2.67970467828067      1.26160803449720     -0.44356265637084
  N   -3.80648669243772      1.32868033662158     -1.17074614742418
  N   -2.22853655884508      2.41910659577897     -0.00523157352663
  C   -1.02763351673193      2.60604036464362      0.54344602193700
  N   -0.91136686902247      3.70745174365007      1.30755344876328
  N   0.11098249151238      1.93766401475773      0.34589970398772
  C   0.24999377463474      0.64691018727474      0.12553370434079
  C   1.53466809791190      0.13790251968006     -0.15218877195385
  C   2.73601770558066      0.80064234699777     -0.43191163037952
  H   3.76419302816651     -2.35823401970316     -0.14185180737317
  H   1.09054598525163     -3.16140657429411      0.67507773350890
  H   -4.24593581275363      2.22558268980453     -1.27130936787577
  H   -4.30089009963200      0.50614382692406     -1.46766083993116
  H   -1.68123392767130      4.34809866427211      1.36522634425091
  H   0.00342783423142      4.00590540556585      1.59135376540485
  H   2.86166360731647      1.85856401716212     -0.58862295585320
