25
Coordinates from ORCA-job ./opt_b97-3c_parallel
  N   -0.64972618379884      3.18714757901529      0.73451087699844
  C   -0.74921717672692      2.06563123023629      0.44060953129108
  C   -1.06357577686186      0.72591008461441      0.11798986365337
  C   -2.46771600737158      0.49787398453329      0.03891832101581
  N   -3.30211306807633      1.54549248919504      0.22451373667828
  C   -3.07128741691466     -0.73046506488135     -0.27788222938752
  C   -2.47685550173513     -1.96409096592459     -0.38555097030006
  N   -1.24620900755295     -2.38111419727829     -0.13370351326293
  C   -0.14243516271987     -1.66184332842327      0.06039323034486
  C   1.00002655306826     -2.43871961863652      0.36396421409520
  C   2.27253734839071     -1.92537289970801      0.36841603862785
  C   2.46142686620331     -0.58489587094076      0.04402744275017
  C   3.59161108843788      0.20911871210527     -0.14551780195840
  N   3.25718316451849      1.47918865346934     -0.51530120402245
  C   1.92423901625489      1.53461134735504     -0.53513404388798
  C   1.33085433938061      0.27504337124191     -0.19617426913724
  C   0.01573763213550     -0.18392640239382     -0.06433837369499
  H   -2.95616353155275      2.45558987876352      0.47393971575060
  H   -4.29134536298489      1.39560982787438      0.27460014026450
  H   -4.14286455562873     -0.70917240701137     -0.43661736035590
  H   -3.14604091401767     -2.77076659185455     -0.67433090798801
  H   0.82085224116707     -3.49243311499416      0.51502785804133
  H   3.11850869890537     -2.56993346800240      0.57240182953206
  H   4.62685949344245     -0.08004092541097     -0.04187635320869
  H   1.42748470333679      2.44321585045794     -0.83089164533946
