26
Coordinates from ORCA-job ./opt_b97-3c_parallel
  N   2.65098751408420      3.22550099127278     -0.09379933410436
  C   1.88990511697705      2.34683187750005     -0.06997386071268
  C   0.83233046505957      1.41431177026497     -0.06715455876320
  C   -0.49621920087486      1.92959955387276     -0.12221413963194
  N   -0.69344875392358      3.24880826331702     -0.27959015143796
  C   -1.54794628232275      1.01553422513034      0.00416506617696
  C   -2.93790766157819      1.13268447957923      0.02881835797951
  N   -3.55260830428123     -0.06550927343482      0.16299247139946
  C   -2.57804828818708     -0.99174465891922      0.20398748323638
  N   -2.88646289933394     -2.30562063361285      0.33010086823132
  C   -1.27404918764504     -0.39602097625567      0.09852549058124
  C   0.00604192643650     -0.92233169757992      0.00791354857801
  C   0.24583124223129     -2.27278490464218     -0.32575486352614
  C   1.44335711382439     -2.94803944067725     -0.45486705514708
  N   2.68184638327177     -2.62815676768697     -0.07917120205121
  C   2.99165193819802     -1.43014929882434      0.40576326332142
  N   2.38506893354413     -0.26042427889277      0.37761312086481
  C   1.11567242976384      0.04381466829367      0.08577014450780
  H   0.08779941391662      3.88240753782917     -0.26304476839627
  H   -1.61017575183546      3.64249656043428     -0.18760593802572
  H   -3.53488563748066      2.03049702446876     -0.04249085837466
  H   -2.20144104358449     -2.91622773321799      0.74122128461726
  H   -3.83887553549643     -2.48906350414225      0.60219557293364
  H   -0.61946276130112     -2.83302244737701     -0.65646407300903
  H   1.36745912601460     -3.94037778527747     -0.89184311162905
  H   3.97857967982312     -1.38684219632332      0.85809898068610
