33
Coordinates from ORCA-job ./opt_b97-3c_parallel
  N   5.47854153794884     -1.49819816869227     -0.75234338841433
  C   4.45621099479908     -1.00032792956298     -0.50434332094928
  C   3.25156099320767     -0.33183510837665     -0.18740399406425
  C   2.10680953547210     -1.10551757185063     -0.11639298049234
  C   0.75879985700323     -0.82520716673541      0.11057027686382
  C   -0.07553676378732     -1.99393083628978      0.24667741765326
  N   0.52009183377869     -3.24262021206457      0.40945218652408
  C   -1.45081488046832     -1.90969317032024      0.16034172384184
  C   -2.04785142856192     -0.67414232847555     -0.01284949674700
  C   -3.38739267113983     -0.26130696017571     -0.10585561709070
  C   -4.54095918548340     -1.04059429456450     -0.14165048659718
  N   -5.52614393707650     -1.66268677750888     -0.17818044749520
  C   -3.33526563514495      1.16516697840394     -0.16156287158207
  N   -4.40769473120209      1.98811499916703     -0.21154753842354
  N   -2.08189048577321      1.63233965317436     -0.10642278812716
  C   -1.25532668767614      0.53399494801870     -0.02080513166550
  C   0.13718320124137      0.49024404244556      0.07600639186135
  C   0.88743155524352      1.73127358626867      0.17839002854098
  N   0.16355125653599      2.85866702564423      0.23475872615214
  C   2.27559025534141      1.91420033468167      0.27995696257060
  C   3.34984933591219      1.06669982393473      0.08459427042996
  N   4.60062750341543      1.59289446329312      0.17955206495757
  H   2.29780478719787     -2.15191503630068     -0.31180273573203
  H   -0.14463548448963     -3.99247362509212      0.50387521006082
  H   1.21718436198814     -3.29626684875265      1.13401353742748
  H   -2.05948744586649     -2.79966217440362      0.26361443966016
  H   -4.24033303636678      2.93635106517133     -0.49747656897376
  H   -5.28684197250252      1.59276115825044     -0.49544489519431
  H   0.62682883813754      3.74811121932002      0.26352744451228
  H   -0.85924127571157      2.79936158302153      0.12840395871285
  H   2.55859244306359      2.94426742493520      0.47124899841038
  H   5.39189533769398      1.04544123010829     -0.11163777663982
  H   4.71895527387059      2.58824079432704      0.15136743170922
