30
Coordinates from ORCA-job ./opt_b97-3c_parallel
  N   2.52109463907913      3.14315568013642      1.16451335871864
  C   2.24913892825293      2.09350408585314      0.74588128401530
  C   1.99992002358441      0.76078483020402      0.33110060629375
  C   3.12962159112587     -0.07523296276272      0.50931507276619
  N   3.35420962527466     -1.32672217377960      0.22557905703624
  C   2.39483475381121     -2.14233380122453     -0.29105835368920
  N   2.91091662192138     -3.23681303909615     -0.89315711647914
  N   1.08096444595142     -2.08921349753398     -0.23463550629100
  C   0.28000741369924     -1.04101615242886     -0.01005278839164
  C   0.68473734895352      0.38189027285108     -0.03443690029482
  C   -0.30263126326055      1.34929256016739     -0.31055014260809
  C   0.01213273981401      2.65132172971009     -0.74592804918288
  N   0.10585808663599      3.72121468789874     -1.19434105077747
  C   -1.70134100182329      1.04697279687761     -0.23391328214734
  N   -2.61914645605161      2.01343999716944     -0.49242350281641
  C   -2.06503723405151     -0.23904530680625      0.14317561998602
  C   -3.32987502824746     -0.84509181379219      0.33041671938153
  N   -4.53855095299331     -0.18960586824353      0.36294984360418
  C   -3.13120467119882     -2.24614829415845      0.43485736430541
  C   -1.77721179343608     -2.50976309935051      0.33037989616640
  C   -1.08000912240393     -1.28364982435595      0.17251821754895
  H   3.98477656866845      0.43359901909586      0.94475520753462
  H   2.29147044055952     -3.97904334950787     -1.15979973135620
  H   3.89225120273883     -3.41899028127739     -0.79430510146595
  H   -2.28647913073266      2.87141629627133     -0.90467761606717
  H   -3.52473145253551      1.71253253267474     -0.81193966395616
  H   -5.32106792769247     -0.75772445151600      0.64445124596543
  H   -4.53624521360838      0.69664128154683      0.84494160567077
  H   -3.91331053813169     -2.97224313152550      0.59659161139090
  H   -1.30966695590309     -3.47857179459461      0.38544290444271
