27
Coordinates from ORCA-job ./opt_b97-3c_parallel
  N   -5.51912587895498     -1.56496859560172     -0.02287967573123
  C   -4.44567260708152     -1.11928654443233     -0.01333502175874
  C   -3.15167683833789     -0.56978276699754     -0.00310627971309
  C   -2.85588062611415      0.82579741227280      0.01804383869200
  C   -1.47728527125752      0.95285103177128      0.02139041995700
  C   -0.60379756920803      2.06724938750975      0.03015870518646
  N   -1.07768517722285      3.32952440065415      0.06085769938346
  N   0.71841997679108      1.93939257874049      0.03439114391916
  C   1.29308227725166      0.71572441775170      0.03165454956467
  C   2.68039532347924      0.75577472185988      0.05010349717616
  C   3.66336541595270     -0.25276372019733      0.03827116146362
  N   4.96054848436262      0.16425288335574      0.09034529588866
  N   3.54067617487996     -1.58259837862503      0.01097125066971
  C   2.38469948256790     -2.22583808826302      0.00056953051561
  C   1.06471611171403     -1.80532760388795     -0.00004414692791
  C   0.49909947520293     -0.52824030118467      0.01068503080447
  C   -0.89344333935624     -0.36363247035833      0.00528652346087
  C   -1.95595703511561     -1.29318905215113     -0.01069845555144
  H   -3.60049870615014      1.60534911299273      0.03652626521736
  H   -0.41766402086734      4.07617643363378     -0.06588612800751
  H   -2.04466789679841      3.51568187425615     -0.12517470380223
  H   3.05825844779122      1.77039554166318      0.08011719405599
  H   5.65948966124973     -0.53656624425965     -0.08038842042845
  H   5.19811876037821      1.11504604174622     -0.12147061364346
  H   2.50947989161263     -3.30509906710944     -0.01534176416885
  H   0.35431168397997     -2.62123864282039     -0.01440488261381
  H   -1.89034372214919     -2.36777914581929     -0.02569700230848
