26
Coordinates from ORCA-job ./opt_b97-3c_parallel
  N   -5.44934823068735     -1.51831566534847     -0.72276201043765
  C   -4.38479102422072     -1.08477215882277     -0.55020566434005
  C   -3.10150504781344     -0.55173729562114     -0.33831302220852
  C   -2.80919248993821      0.83254620585758     -0.16612792522112
  C   -1.43553011763549      0.94853934465987     -0.01321601505721
  C   -0.56952766572242      2.03424354994140      0.26867851326890
  N   -1.04099620327760      3.26446723502614      0.52047024588003
  N   0.76005394037783      1.91206731397309      0.27837274599591
  C   1.33168316459169      0.71640455491741      0.10415802627363
  N   2.63360131470953      0.75413373105935     -0.12845197269665
  C   3.51695672959213     -0.23512394163823     -0.18226279374833
  N   4.65070119507766      0.05179234381254     -0.85629215133389
  N   3.52429228978066     -1.45116473921155      0.40784949388788
  C   2.41048003119153     -2.09335501614418      0.68263245493260
  C   1.07570575793072     -1.76653914646310      0.44291667628578
  C   0.52121122225064     -0.53747843670524      0.10881970963419
  C   -0.85775737321505     -0.36607958601806     -0.07568236479558
  C   -1.90985762847185     -1.28374228989044     -0.26865933303050
  H   -3.55113930590991      1.61508415337884     -0.16490032693371
  H   -0.38316932247003      4.00958349611256      0.66491806331729
  H   -2.02190052235584      3.46727257958415      0.51572047737174
  H   5.42922016967968     -0.57482206765087     -0.76625697947817
  H   4.81189939471484      1.00122886927953     -1.13838856300617
  H   2.57272100260080     -3.06295919932434      1.14612988446331
  H   0.37310419207078     -2.56716465525044      0.63456583971200
  H   -1.83113064125116     -2.35099940221239     -0.39066412583687
