30
Coordinates from ORCA-job ./opt_b97-3c_parallel
  N   -4.39045310656941      1.98847178525696      0.55802189124577
  C   -3.59686563887911      1.15488035348959      0.38667800919865
  C   -2.64215399098534      0.14023222924484      0.17635743292931
  C   -3.10940716637506     -1.05657275318444     -0.43179051509263
  N   -4.24441228602992     -1.02409485390056     -1.14512567708823
  N   -2.60342586685150     -2.28450263108945     -0.26301482209160
  C   -1.40168227351261     -2.59100112854469      0.13814201868323
  C   -0.21504719986758     -1.82878505969420      0.24257889229609
  C   0.98098352841137     -2.58445815128602      0.30390170556375
  C   2.21651688120780     -1.99533795053512      0.23737609511749
  C   2.29861599833067     -0.61655293869302      0.06493201465550
  C   3.41395688090912      0.22809834333183     -0.12595777692023
  C   4.75066352910575     -0.19176876549156     -0.16385452308718
  N   5.85049785958228     -0.56879214937919     -0.18733779684086
  C   2.93685825232444      1.53761444878598     -0.30441504619326
  C   1.53993971596891      1.55207734593805     -0.19869938898931
  C   0.75027193538039      2.67156169442797     -0.48393586257771
  N   0.07542439295119      3.59527193557688     -0.70262953268598
  C   1.10204246336788      0.20013163170247      0.04711830511759
  C   -0.15135421434516     -0.39856648475846      0.22080872765820
  C   -1.31588623544928      0.40115512294498      0.57891303706951
  N   -1.08916008621745      1.48257860492803      1.32332862849613
  H   -4.75470975934285     -0.17212233351910     -1.29538676677572
  H   -4.67116494312911     -1.89839668193985     -1.39502332763762
  H   -1.27284604872148     -3.65424325068988      0.32200073385394
  H   0.90096825752904     -3.66055388160130      0.36859983128207
  H   3.11853551954505     -2.59062122199756      0.28155683828912
  H   3.54510455648110      2.39931346620105     -0.52404301915956
  H   -0.14608991542640      1.74868198077016      1.54295682830283
  H   -1.79403532259284      2.19179671280566      1.44371968928069
