29
Coordinates from ORCA-job ./opt_b97-3c_parallel
  N   4.91348515011598     -0.61824324527598     -0.72279329436860
  C   3.80862450097406     -0.34695996598291     -0.47146244988059
  C   2.48233395919364      0.00929783956715     -0.16421375534893
  C   2.22532400756362      1.39060484355680     -0.05434332782102
  N   3.27989620227956      2.24291669723899     -0.17459985109353
  C   0.98899170379265      1.99518002429239      0.21523003664688
  C   -0.30864287343593      1.51834289846883      0.22547144371887
  C   -1.31988101537408      2.50900212746458      0.39325692906817
  C   -2.65277939222627      2.24027165200473      0.26729335224295
  C   -3.05105444892360      0.94129552777236     -0.05312128089456
  C   -4.27870711181521      0.36026572102805     -0.34958012947854
  N   -4.14579261761473     -0.96563137082498     -0.67019911157405
  C   -2.85499777641307     -1.25772633779712     -0.55439558302527
  C   -2.07637693254931     -0.10978732034232     -0.16687880688367
  C   -0.71560501252837      0.11070416579873      0.06076291523851
  C   0.17852129119038     -0.98378267631787      0.26685437951396
  C   -0.39932823828135     -2.22463215566471      0.61936093849179
  N   -0.73838201117746     -3.28988823546198      0.94302917792226
  C   1.59147784002514     -1.06154991078398      0.13581123988661
  N   2.16326222062695     -2.27702204274284      0.26678956605887
  H   4.17762390185897      1.90117533593872     -0.47003501118911
  H   3.10405777870701      3.21698551020335     -0.33383744173832
  H   1.06246353555540      3.06667308063190      0.36042980865789
  H   -0.99437068609016      3.52197384687280      0.58532411273315
  H   -3.38200450248477      3.03235185031121      0.38133258558082
  H   -5.24952965031858      0.83289053416092     -0.36054909654396
  H   -2.50293450298527     -2.24946021961585     -0.78214136915651
  H   1.60501296463021     -3.09941740537588      0.41251456906052
  H   3.15987107040457     -2.38777230522521      0.22913048737572
