30
Coordinates from ORCA-job ./opt_b97-3c_parallel
  N   -0.25764496267754      4.53165075821349     -0.18750644739381
  C   -0.03712338351186      3.39001492499659     -0.14342299733920
  C   0.25495464151461      2.01057921837632     -0.09123618908394
  C   1.60413572906900      1.63696126059020     -0.15314970391465
  C   1.93054824530848      0.31237987023304     -0.07584058381925
  C   3.15589784466212     -0.41013319555949     -0.02562988615491
  N   4.41580353684320      0.09128655429275     -0.06134245886652
  N   2.94661103915888     -1.72684122875741      0.15650882425903
  C   1.60533198694299     -1.90368113607578      0.20545578566221
  N   1.11040315564291     -3.15988873838248      0.39783879798690
  C   0.89192615870111     -0.68390494047544      0.04032972700133
  C   -0.47241758558844     -0.36243801342798     -0.02473518910162
  C   -1.40532016597669     -1.40967790400011     -0.22126069789898
  C   -2.78739152569277     -1.47995267822620     -0.12552785505697
  N   -3.37012949653961     -2.71952443130937     -0.30893362034337
  C   -3.66669366881943     -0.42697087544211      0.19766382430869
  C   -3.33186354406977      0.89940704767432      0.31707143362114
  C   -2.11094871074104      1.54926655302641      0.19472077726797
  C   -0.81126913415342      1.05632911580102      0.02103682281291
  H   2.35319696135391      2.41357652877683     -0.23569629963138
  H   5.14730472608067     -0.58122549061438     -0.21607240415586
  H   4.55701056108863      0.98428406229071     -0.49778088607282
  H   1.79773145561102     -3.80686149521763      0.75236942720731
  H   0.21995261321441     -3.21692188685306      0.86646248251631
  H   -0.94694204915907     -2.33789075941765     -0.53726615257172
  H   -2.82059756560803     -3.40781806752964     -0.79415409222610
  H   -4.33479332761081     -2.72056711405215     -0.59157532160751
  H   -4.71090173270705     -0.68620824133332      0.32213930000543
  H   -4.16554988467027      1.56231995341527      0.52007289743284
  H   -2.17611890896659      2.62532026648770      0.28140025685644
