29
Coordinates from ORCA-job ./opt_b97-3c_parallel
  N   -4.51175826218732     -0.54886998143866      0.15628002512979
  C   -3.16287502753515     -0.28965449773905      0.03242454332080
  C   -2.80218394478223      1.04823408319990     -0.22426348148557
  C   -1.55432396840303      1.59429140017629     -0.21258948910812
  C   -0.26118692524570      1.06502667979585     -0.00648215203136
  C   0.78045447509049      2.05056345414697      0.08991431543248
  N   0.42723891705847      3.41446930828873      0.17292829266224
  C   2.11248473208311      1.69887657318347      0.04942688419066
  C   2.47860354721851      0.36371471455031     -0.06141866426432
  C   3.70355448212740     -0.31450777786056     -0.10252426824051
  C   3.37802380877170     -1.67077455389675     -0.11086377532732
  N   2.04653408133143     -1.89567048043069     -0.07474858323870
  C   1.45559452479695     -0.65825288719719     -0.04962625611560
  C   0.08869101267137     -0.33760516105223      0.00322886271667
  C   -0.88294751038855     -1.41873995730418      0.09893029850634
  N   -0.37580998952500     -2.65806471459330      0.14075079218357
  C   -2.28410899015246     -1.34048505116076      0.19689598045761
  H   -4.81141484998454     -1.49879171666025      0.02259466929515
  H   -5.13831990814511      0.12472680695392     -0.24766650392630
  H   -3.61962530348591      1.73000334014308     -0.43054273565935
  H   -1.54364419770248      2.65401033652007     -0.43129890548553
  H   -0.16958847340380      3.62324185630134      0.95986999055868
  H   1.24393420618079      4.00327397043939      0.22117576963428
  H   2.87168051826766      2.46937362723090      0.13221331757906
  H   4.69066496828433      0.11806397510212     -0.11862959050562
  H   4.06374317744049     -2.50557449686059     -0.14203910197934
  H   -0.99377839690299     -3.44696682684790      0.19588724618488
  H   0.65803702984106     -2.77355625627836      0.06809631570997
  H   -2.75771590781952     -2.30287064281174      0.36785266470554
