26
Coordinates from ORCA-job ./opt_b97-3c_parallel
  N   -4.50634863394658     -1.58001098036633      0.03331416767592
  C   -3.58601039488892     -0.87250077230226     -0.01407251304139
  C   -2.47969290790319      0.01680634124221     -0.06903954735976
  C   -2.83816473824547      1.29341909440510     -0.48952758183359
  N   -2.16664042263003      2.44168583339299     -0.54796554327872
  C   -0.91718150926989      2.57269013395072     -0.15050109115070
  C   0.07763541375435      1.64070180357050      0.16947702287257
  C   1.22650040674650      2.23437497375870      0.72315091448829
  N   2.17930710071364      2.73553474083353      1.17082423276342
  C   0.06347871984885      0.19810628537775      0.04904306301917
  C   -1.17435244850442     -0.55920407855800      0.16239429434979
  C   -1.10964916706627     -1.92738338421858      0.43648453434405
  C   0.08447079143499     -2.63377551808795      0.44668749258119
  C   1.24674299247645     -1.96486290839580      0.15178654461593
  C   2.57046612394632     -2.39961580914606     -0.09162419786017
  N   3.36890381659653     -1.40693785651058     -0.46636538945423
  C   2.61719288075276     -0.26408308479064     -0.44730225994817
  N   3.18859755354727      0.85392844719325     -0.88367450302918
  C   1.24047501275232     -0.54244703300910     -0.05929927603510
  H   -3.87718583852944      1.39310595014880     -0.78616335577018
  H   -0.60030941650215      3.60802732737447     -0.05550314690156
  H   -2.03078437916579     -2.46363558852648      0.60407615373363
  H   0.08186322478385     -3.69877386098246      0.63639557909711
  H   2.94275402472450     -3.41120881473086     -0.01715539359308
  H   2.86840218204345      1.76218660534298     -0.58182543249888
  H   4.16997243153034      0.77379472013377     -1.10048847828593
