24
Coordinates from ORCA-job ./opt_b97-3c_parallel
  N   4.16955876561152      2.03384917659252      0.13957481793535
  C   3.14092238946882      1.50098830194268      0.09125976938640
  C   1.85978306576111      0.89473174695272      0.03931290983851
  C   0.72224549578997      1.67439751622410      0.14999817295432
  C   -0.57735349969966      1.13012398939461      0.08461662077836
  C   -1.63167360415584      2.06730213490755      0.15175345600616
  N   -2.90178099895316      1.97510941435600     -0.17773518467451
  C   -3.50778174509589      0.83338485454650     -0.49841916191492
  N   -3.22456208469207     -0.40639842228697     -0.18503452422646
  C   -2.05404967870129     -0.87884178817237      0.24191802819927
  N   -2.11522294697170     -2.05598634377172      0.86624389707674
  C   -0.74649450217744     -0.30168703619257     -0.00072738120912
  C   0.38659666879962     -1.10001266806858     -0.12026587016544
  C   0.64556970836697     -2.48848464598282     -0.25015518338193
  C   2.02486072742960     -2.60081408669809     -0.34088374136756
  N   2.68438317992977     -1.40641135895786     -0.24515915922043
  C   1.72240756368961     -0.49488385107298     -0.12808101600024
  H   0.82848218732019      2.74335268168237      0.25882253695128
  H   -1.33131736411647      3.06957887519222      0.44572205000793
  H   -4.44503621699927      0.95974736442238     -1.03128470426930
  H   -3.01375082413843     -2.48213852505550      1.01150665428702
  H   -1.29085355942580     -2.48027457526562      1.25374499026535
  H   -0.06157670799134     -3.29309503751658     -0.36393196251381
  H   2.58739348875120     -3.51265151367175     -0.47938465984293
