26
Coordinates from ORCA-job ./opt_b97-3c_parallel
  N   -5.66894218274060     -0.35252098437991     -0.01689630528493
  C   -4.51461193748194     -0.22088429614431     -0.01069801950938
  C   -3.10577990038868     -0.05626757268637     -0.00346556273497
  C   -2.61960399505610      1.25925341427105      0.00865850786066
  C   -1.32305358810416      1.70625443307185      0.01691940648131
  C   -0.07326704735916      1.04287625261720      0.01628686083425
  C   1.05541602436533      1.85893566063431      0.02447397245146
  C   2.37000340185506      1.37404915645528      0.02268998799674
  N   3.41433413147527      2.23391176147785      0.06066723262069
  C   2.56073514677794     -0.01693383946882      0.02328440316499
  C   3.67674015229289     -0.84754110278315      0.02112555366970
  N   3.31387216480610     -2.16241207692204      0.00530889148091
  C   1.97797214864648     -2.19645684601773     -0.00314538913515
  C   1.41570790546339     -0.89251506166254      0.00759014784077
  C   0.09527635389542     -0.41857007296050      0.00592829628997
  C   -0.95726632897378     -1.34959821691944     -0.00497973149137
  C   -2.32773539666553     -1.21693870170848     -0.00932724781962
  H   -3.37685199952654      2.03235051951200      0.01214931286047
  H   -1.23666614247242      2.78648915906747      0.02615400366833
  H   0.90608048482145      2.93132112273793      0.03273281865274
  H   4.34036682857819      1.89306010205257     -0.11834541913040
  H   3.26233358575010      3.21003360781526     -0.11558847063912
  H   4.72270967994332     -0.57786512643804      0.03941055256683
  H   1.46091524351513     -3.14412240070782     -0.01728086428559
  H   -0.62534162111187     -2.37889239135812     -0.01118335601274
  H   -2.88203316250530     -2.14635277275550     -0.01828727219658
