31
Coordinates from ORCA-job ./opt_b97-3c_parallel
  N   3.43506061385226      3.56109895847293     -0.26918619495339
  C   2.96224528102920      2.49816513872889     -0.23084625183899
  C   2.34867656759249      1.22990679257963     -0.14461663735069
  C   3.13080396833353      0.13694904574063     -0.49768040411685
  N   2.94549987368717     -1.13049456660035     -0.22622027013717
  C   1.83475486824781     -1.69761590227312      0.24061636234977
  N   2.06074131736480     -2.81013074188971      0.96097337060462
  C   0.46806399281076     -1.28391090922375     -0.00142609069751
  C   -0.51542680340942     -2.27681308750862     -0.18467521954763
  N   -0.16028110183435     -3.64753080698475     -0.30299634536588
  C   -1.87018955098923     -1.96258474364674     -0.21697042356802
  C   -2.28966251185605     -0.66303717276372     -0.06553106599170
  N   -3.55800873098839     -0.20669462985329     -0.13200719197703
  C   -3.44313788606863      1.13353167898049     -0.04513620708039
  N   -4.56223080177819      1.91667358579065     -0.05122485936413
  C   -2.10894905159724      1.57906951119235      0.10352224025973
  C   -1.31647347740413      0.41552803630296      0.09540162515466
  C   0.06895586676090      0.11342456512268      0.11842391030653
  C   0.99311559434029      1.18837717545232      0.31866247264829
  N   0.52747926103948      2.32649895356341      0.85770581769534
  H   4.07716220238702      0.36140454694200     -0.97904302804038
  H   2.99771886479632     -3.17614245627877      0.93810250744408
  H   1.29660763785260     -3.45700275489736      1.10660953690286
  H   0.52422298149867     -3.81226702888764     -1.02847126145409
  H   -0.97321942277849     -4.21025818158853     -0.50103256796535
  H   -2.60659338014749     -2.73775927607196     -0.39102867766452
  H   -5.38318480331466      1.46059428088312     -0.41303618345630
  H   -4.45204113973523      2.86834587757135     -0.35406558340449
  H   -1.81702057511517      2.61471413862648      0.09083387347328
  H   1.14664119478172      3.09948648352841      1.02834343672114
  H   -0.37054910865852      2.32928877199014      1.30902756451416
