30
Coordinates from ORCA-job ./opt_b97-3c_parallel
  N   -4.77658149276203      0.44154577667864     -0.14796495891435
  C   -3.44499848899576      0.09198454240073     -0.11340443439087
  C   -2.96486898644203     -1.23509807623411     -0.01734437050675
  C   -1.58111663634253     -1.16363884888081     -0.00053076361591
  N   -0.69668866080840     -2.16353953810666      0.00408638585665
  C   0.58984548422482     -1.87556650486407      0.01022689765116
  N   1.43269520387823     -3.02900893922160     -0.06523132909733
  C   1.13750874824207     -0.55730264474025      0.05619204605950
  C   2.55681884966217     -0.37551278984016      0.17822597907552
  N   3.30884565085666     -1.36064219175758      0.71515255642409
  C   3.28151965723206      0.74318534765446     -0.29397131546349
  C   2.81273229793446      1.99577747837207     -0.58372118687005
  N   1.65735381287221      2.56454823977008     -0.27018799609172
  C   0.58687476738821      1.93787489300726      0.19024916200164
  N   -0.27821752177026      2.74211847335214      0.83032160046309
  C   0.18848075992346      0.54606151427313      0.01756098170436
  C   -1.17494451030457      0.25034161974989     -0.03726306150778
  C   -2.37172418112977      1.00001929183766     -0.10627938012229
  H   -5.39785666661646     -0.27003643895171     -0.49413852794269
  H   -4.97636483104519      1.34408494093352     -0.54573597008753
  H   -3.55712300464286     -2.13555903080663      0.01297903001191
  H   1.94420425197373     -3.05021346681346     -0.94064814947341
  H   0.81401716179771     -3.82958310630971     -0.05363607668032
  H   2.88847583660725     -2.28012133593403      0.83183391516729
  H   4.30871376937949     -1.29082608906174      0.65991761937467
  H   4.34579898007348      0.59190926586804     -0.43481647702829
  H   3.51804141381254      2.67631573191492     -1.05313174533271
  H   -0.03105179830886      3.70840389740894      0.94211370162504
  H   -1.11163681145418      2.37421181908501      1.25439626344446
  H   -2.48073840833571      2.06076172301605     -0.26481827013375
