31
Coordinates from ORCA-job ./opt_b97-3c_parallel
  N   1.68455360821908      2.71903483551091      1.41305538086844
  C   1.68529507644894      1.66489681121744      0.90141724476059
  C   1.72714183449529      0.42823932910632      0.26268510890616
  C   3.03815088824136      0.03770152924990     -0.19474380284371
  N   3.94746771954409      1.03213489859243     -0.37144547788580
  N   3.51611113494853     -1.16400698697061     -0.47117999046948
  C   2.83985449619890     -2.30086469871454     -0.27423604462263
  C   1.53261080572572     -2.57656357667261      0.01981753093778
  C   0.40056937558007     -1.72456088935885      0.11447805952354
  C   -0.84273644021046     -2.34606702782197      0.22679884703104
  C   -2.05640949088774     -1.65791504095485      0.21668412844099
  N   -3.26206958512741     -2.33528790895010      0.29762288642300
  C   -1.99707465065509     -0.27570279961837      0.11230480093063
  C   -2.99784998247294      0.71004729228243     -0.06969419160199
  N   -4.34891881621328      0.52926647603209      0.00618406372843
  N   -2.48092865617425      1.90816127236898     -0.37867449807214
  C   -1.13455892707368      1.76689910502849     -0.35344298133182
  N   -0.38018039511316      2.80879898957456     -0.73214114293322
  C   -0.74009642346433      0.40431621704866     -0.02066094758485
  C   0.48079738696807     -0.27077605558374      0.08124227102183
  H   3.77012787349390      1.95939287514254     -0.03003067561518
  H   4.90389609535740      0.73798098594356     -0.45838368790640
  H   3.47335833145841     -3.17777554906430     -0.38256485939532
  H   1.31055662423758     -3.63386589062095      0.10078510723100
  H   -0.86158366661353     -3.42758513272673      0.28294065390018
  H   -3.18590398261749     -3.32851010010381      0.14861287692627
  H   -3.99780437170527     -1.94316812159016     -0.27015276485855
  H   -4.66586172355210     -0.10300643816721      0.72384270024223
  H   -4.86867540179861      1.39295254732244     -0.01741552726550
  H   0.51843107396389      2.95830002892688     -0.29332978537502
  H   -0.91060100390217      3.64868986067084     -0.90286317491050
