33
Coordinates from ORCA-job ./opt_b97-3c_parallel
  N   -5.41994709505261      0.30693699348682     -0.23466848537876
  C   -4.25837698759565      0.24963059716407     -0.14474226175934
  C   -2.86031969941653      0.18633008709869     -0.04389949110428
  C   -2.13077360570222      1.36319187633120     -0.32321817365680
  N   -2.84699512794311      2.47456609306959     -0.66965687097715
  C   -0.74678009692634      1.54198481611511     -0.20949692917246
  C   0.29515680939639      0.64625962218782      0.01699475649554
  C   0.10032749878477     -0.81560970014975      0.03057097020179
  N   -1.03416067635801     -1.45506179278634      0.29337089039899
  C   -2.28477435137694     -1.05107863296818      0.37713153617105
  N   -3.12128644256884     -1.98524218176469      0.89664554400433
  C   1.21738317847400     -1.64369760773804     -0.19397085318924
  C   1.03214723106273     -3.03867981184289     -0.24552076484976
  N   1.00414144495356     -4.20053114156736     -0.30591986098863
  C   2.55193473368983     -1.14442744832167     -0.27800165202374
  N   3.56405872941012     -2.00271834626343     -0.54367063223634
  C   2.74917704329202      0.21859986336123     -0.08168062243065
  C   3.92111431416176      0.99981831657947     -0.02535054392693
  C   3.56723239968505      2.31906724943183      0.23792630958659
  C   2.16444479263227      2.39778962658803      0.33862505815011
  N   1.45497196857462      3.54701924336800      0.60237432851752
  C   1.62400172615173      1.09287360220712      0.11896637749828
  H   -2.35907672385529      3.23254451042633     -1.10998480756528
  H   -3.81094384708448      2.37114673599101     -0.93627335145300
  H   -0.42870814457446      2.55044803415323     -0.43558733505491
  H   -2.75795076942301     -2.91970352636476      0.95858094680534
  H   -4.11774860724852     -1.86704577274209      0.85766112944225
  H   3.39312058885081     -2.99213480799996     -0.48119768701675
  H   4.50847787203837     -1.70573254186032     -0.38629258187367
  H   4.93449252201634      0.64981924271744     -0.15352704978201
  H   4.24789261008941      3.14627896907475      0.36868023768069
  H   0.58783648899341      3.41269494701267      1.10028832279117
  H   2.00326851875483      4.28862230311887      1.00819600476999
