28
Coordinates from ORCA-job ./opt_b97-3c_parallel
  N   -4.75557503035066      0.81233897572216      0.47098992186510
  C   -3.67408353060457      0.39871977783844      0.34058886379597
  C   -2.37207900400791     -0.10756807041818      0.16527762530272
  C   -2.29006424981885     -1.47787996591149     -0.19576971157780
  N   -3.39856460347874     -2.09672706411697     -0.64438026367949
  N   -1.24421069228355     -2.30123571964339     -0.05994378937718
  C   -0.00321351580010     -1.95103931972432      0.15132859751859
  C   0.68106989779036     -0.71968306130653      0.07302587504487
  C   0.08129414844046      0.59213993520046     -0.03176170189923
  C   0.95456198624134      1.68425326354581     -0.27751566165918
  N   0.46185426285001      2.98554540719178     -0.52023629142897
  N   2.28584562548291      1.61933460266292     -0.27937073144166
  C   2.86051986973331      0.45054290099354     -0.06431073970262
  N   4.18572486874734      0.22910960161419     -0.01292998320176
  C   4.28630112994216     -1.10903166666450      0.15009978468115
  C   3.05505784027174     -1.78878073321341      0.20379048041038
  C   2.08685408820259     -0.79450276070372      0.08637654735834
  C   -1.30400600470912      0.82146979922527      0.30926787913015
  N   -1.63773902243754      2.02461558410789      0.79588495822744
  H   -3.37475531427314     -3.09900647603482     -0.70100511486491
  H   -4.28376674885176     -1.62696575642452     -0.70842268479949
  H   0.64098259890510     -2.79918064259495      0.35477012996904
  H   1.25087392342920      3.58968444721150     -0.70432989756142
  H   -0.18842407167170      3.02901271165454     -1.29345572190864
  H   5.26253884550718     -1.56839817545352      0.22504721893139
  H   2.92704339509319     -2.85287346853863      0.31797057161687
  H   -2.60062863118715      2.25630170313869      0.97065376413876
  H   -0.95844831506231      2.77689600544316      0.74007827061157
