29
Coordinates from ORCA-job ./opt_b97-3c_parallel
  N   4.76704265937368      2.21593405502685     -0.19950172113619
  C   3.87347056558881      1.47567798717837     -0.11374313211178
  C   2.85278436491121      0.50264458917421     -0.01774518497642
  C   1.54246543428348      0.94161779947198     -0.01235850762937
  C   0.32922843498662      0.25379700816812      0.01627003341821
  C   0.17863242670930     -1.20228235838741      0.04752425672776
  C   1.23604172189755     -2.07045389392663      0.30786218377352
  N   2.55665464229319     -1.95551714297591      0.30662636345778
  C   3.28497079571699     -0.87189311574543      0.05758314268035
  N   4.59285705449561     -1.11744160405843     -0.09633181361449
  C   -1.12684017158740     -1.78228359203964     -0.05163035320432
  N   -1.28016262197081     -3.14262630856959     -0.13627684801433
  C   -2.28554298326607     -0.97404808320974     -0.02408169351176
  C   -3.55263187470505     -1.58319357269532     -0.13443747009863
  N   -4.55535513172774     -2.16222141960786     -0.23375212085728
  C   -2.15580198181528      0.41719088066529      0.05502408268215
  N   -3.08714288511268      1.36556998238491      0.07565632857652
  C   -2.33031391562083      2.50946340952126      0.08447216663714
  N   -2.91544138361516      3.71189396932386      0.08610832708679
  N   -0.98464983749171      2.36603712106781      0.07048531814755
  C   -0.83371796843568      1.02892477109629      0.05148433734738
  H   1.41976814582902      2.01699879491624     -0.04677404232129
  H   0.93658076117342     -3.07562848812402      0.58535004460002
  H   5.26308745917275     -0.38432072042039     -0.25014895894819
  H   4.90882295311436     -2.06361451232313      0.02283087274050
  H   -2.22396206320569     -3.47416744667940     -0.25366701160379
  H   -0.61558781762486     -3.65314916255550     -0.68780444685774
  H   -2.35319549408894      4.53305559433692      0.20766365273493
  H   -3.90840827887624      3.76957004648762      0.21325365357319
