29
Coordinates from ORCA-job ./opt_b97-3c_parallel
  N   2.01367425777012      4.41124934372803      0.45970244859647
  C   1.71488390863874      3.29959039685789      0.31476976580688
  C   1.36249399978808      1.93068554757899      0.14274265762887
  C   2.42230077354771      1.02328859463074      0.09898298401288
  C   2.38497640093856     -0.33630994318563     -0.13734466940138
  C   3.65789280065857     -0.95199586551755     -0.26559988500109
  N   4.67913886502469     -1.49540672113095     -0.37766562943586
  C   1.25751005607376     -1.21896710336940     -0.28997945483367
  N   1.54846281116226     -2.42985195649813     -0.78810134493136
  C   -0.11410453647294     -0.92979627683281      0.04010443044041
  C   -1.01707392074699     -1.99782658120236      0.28683136591045
  N   -0.54051022090973     -3.30861497040469      0.54928125881266
  C   -2.40140003988422     -1.82299648055055      0.25744826684644
  C   -2.95985499199252     -0.59188716837924     -0.00164705404429
  C   -4.25927015787329     -0.07129084085059     -0.08602664474575
  C   -4.08336677094587      1.30130512177704     -0.26048789113251
  N   -2.77805500495931      1.68644955673758     -0.28808277300344
  C   -2.07433839378235      0.55142659211198     -0.14347228572319
  C   -0.66637363674860      0.41987669220312     -0.05704003500558
  C   0.01554296892872      1.63805671143291     -0.00403834733544
  H   3.41132397813020      1.44610669488178      0.20864650995198
  H   2.50666502388532     -2.69945253298821     -0.93644343979057
  H   0.84700688475907     -3.16142186044428     -0.72649512001916
  H   0.10319009106352     -3.34195491347771      1.32822922463157
  H   -1.29901200315231     -3.94717411791890      0.73250714060881
  H   -3.03355776544683     -2.68108895401218      0.46104420158031
  H   -5.19071191958056     -0.60901667104093     -0.01968294912488
  H   -4.86060361994878      2.04365118840508     -0.37036139400312
  H   -0.65152397472498      2.48989438605893     -0.03806194409600
