31
Coordinates from ORCA-job ./opt_b97-3c_parallel
  N   -5.87848293927972     -1.52137691703437     -0.51111494527571
  C   -4.93364372877840     -0.86960844376272     -0.31441138009368
  C   -3.74575828539044     -0.16237117966530     -0.10496083019337
  C   -3.57886237583678      1.19134149935040      0.20654262575806
  C   -2.20064083674116      1.46746334376056      0.24672615969009
  C   -1.50676945432774      2.64693834610380      0.46080370024503
  C   -0.12863304981054      2.65738628797481      0.35617185458088
  C   0.62709993236090      1.50431217983134      0.08254846901167
  N   1.91930692889621      1.71788915663828     -0.17960690238474
  C   2.93518900392577      0.89273559819490     -0.32841955816650
  N   4.04407982348888      1.47989151366130     -0.84605614093243
  C   3.04072566960555     -0.48875376103215      0.03007374650978
  C   4.32742398635901     -1.04470405225681      0.08887317787848
  N   5.39520470646094     -1.51128449163821      0.14266623541571
  C   1.94908072269645     -1.34609165890348      0.28527356907571
  N   2.22996043980067     -2.64995696121352      0.56794842161385
  C   0.58825389402176     -1.01730992384245      0.20799323764681
  C   -0.06523610696065      0.20072520281477      0.05211517324477
  C   -1.47569686669972      0.25209744147252     -0.01113235602083
  C   -2.44798706802153     -0.75424656203268     -0.25285689902370
  N   -2.25258875494538     -2.05751633922498     -0.57861413010352
  H   -4.37747754141727      1.89703206611704      0.36674334513479
  H   -2.03920692476004      3.56765730712107      0.66310625571772
  H   0.42170926923169      3.58335226785788      0.43324051082843
  H   4.92772880254996      1.00336959643181     -0.86314958337345
  H   4.04431871943207      2.48294861498732     -0.88364159497701
  H   3.17415014264312     -2.91733495888720      0.78632837824997
  H   1.51172325274847     -3.21883219976498      0.97605604353535
  H   -0.06184719294902     -1.85794039069994      0.40875365220379
  H   -3.05786818893322     -2.55113274043338     -0.93268282251071
  H   -1.39260494476995     -2.29101515142625     -1.04805215648559
