29
Coordinates from ORCA-job ./opt_b97-3c_parallel
  N   -5.47288548932986      1.34893506245882     -0.09869002382521
  C   -4.34323491129526      1.07427867418714     -0.05349354894625
  C   -3.00903068470076      0.64824051692580     -0.01058482826071
  C   -1.85502879424555      1.42852075081000      0.04407752314457
  C   -0.73637088345385      0.56704457544713      0.01907787372862
  C   -1.23176271229471     -0.78744348862203     -0.02730812128272
  C   -0.32863155205274     -1.84412006427245      0.07191236355124
  N   -0.74288320226055     -3.14183776267766      0.15103051687714
  C   1.04421415995914     -1.54548862122710      0.05666373577560
  C   1.56270472976161     -0.25866039009698      0.01301065331593
  C   2.98875527957687     -0.11192380047955     -0.06261954979249
  C   3.75172960759496     -1.30614923239858     -0.13040582161900
  N   4.38189508982918     -2.28177385457131     -0.18163585531554
  C   3.75971179438779      1.05048648601554     -0.08793622562524
  C   3.35874180115859      2.36671713362603     -0.01730425170119
  C   2.04970911441581      2.83457404079204      0.10307658072126
  N   0.89714039432290      2.20868381117228      0.12032728541197
  C   0.62656705718477      0.89139053581718      0.04427306327001
  C   -2.63105519140518     -0.73699248860146     -0.07431841192244
  N   -3.50665924581333     -1.79208018316638     -0.14519618002333
  H   -1.81623713420267      2.50246539033920      0.07994098189875
  H   -1.64810646452323     -3.30587097137766      0.56031115737652
  H   -0.05120542656841     -3.82380307156572      0.41281186087298
  H   1.73363500043966     -2.37756075172816      0.08577708077321
  H   4.82652981241884      0.88260586238520     -0.16544466180891
  H   4.13556743182640      3.11971027587118     -0.03714069442264
  H   1.95061154848518      3.91441686603735      0.19180576183997
  H   -3.24502590926891     -2.53124096793155     -0.77903977158782
  H   -4.47275207424694     -1.52697212286853     -0.26705416782337
