27
Coordinates from ORCA-job ./opt_b97-3c_parallel
  N   -5.56644061164571      0.23730254367894     -0.30660999848806
  C   -4.41088335005723      0.30641272415466     -0.21656073081079
  C   -2.99824237181045      0.40065142518842     -0.10861013386145
  C   -2.43344765321220      1.67453504296300     -0.21750749419910
  C   -1.11786762322612      2.04100573605859     -0.10143682532412
  C   0.07853525015271      1.30444786408507      0.05166891852777
  N   1.14427686382471      2.09987478285697      0.15917830114372
  C   2.38676938697109      1.59314351502941      0.16983038280975
  N   3.36971769089349      2.48932892212713      0.36679564239847
  C   2.62561798805199      0.22866338552463     -0.02851138922383
  C   3.78573842221928     -0.51963379264403     -0.18898689599575
  C   3.40536618737425     -1.86950812329201     -0.37184245051526
  C   2.02886377607327     -1.97592071314297     -0.30643481783195
  C   1.48835761210995     -0.66996478322871     -0.09323125078236
  C   0.19208038222111     -0.17179076839211      0.03825528855023
  C   -0.94014776566609     -1.03022575018467      0.23316617152996
  C   -0.69694990536763     -2.38954307453886      0.58491097779965
  N   -0.59806427908677     -3.50128945257669      0.90364396569903
  C   -2.30635621689328     -0.78176125892168      0.14749155332140
  H   -3.13206111141095      2.48417059052606     -0.38214885178720
  H   -0.92356580759613      3.10316329717197     -0.15826951575841
  H   4.33507304076548      2.23181190473304      0.29423390726879
  H   3.12727157572569      3.46357908424691      0.38871497467243
  H   4.80146093740126     -0.15356825508586     -0.18588521570821
  H   4.08499273294277     -2.69002251016744     -0.54037645129729
  H   1.47788644505197     -2.88877877911772     -0.42933874757184
  H   -2.93039013630444     -1.65159883474868      0.29843065854175
