25
Coordinates from ORCA-job ./opt_b97-3c_parallel
  N   3.46743604911798      2.79025077541808     -0.03729765734704
  C   2.93011759187981      1.75897776530744     -0.02924493058903
  C   2.29308024203423      0.49384824306781     -0.01431769222344
  C   3.17437107043265     -0.58405921660419     -0.23025099360326
  N   3.00484465934258     -1.88534384653285     -0.18579988901587
  C   1.82273854615368     -2.46929262160417      0.11240288175804
  N   0.59367042857897     -2.05279569795119      0.18930435854862
  C   0.10401544674028     -0.78372414809418      0.07889676272315
  C   0.87009789431725      0.47015296744515      0.10291463857065
  C   0.17682605356436      1.68321333855341      0.17989596634418
  C   -1.21009849739600      1.76011828824979      0.14216293932151
  C   -1.95002560075583      0.60513342875239      0.03469655316523
  C   -3.34780868526480      0.33970062929990     -0.00708683883682
  N   -4.34122676068599      1.24847354619390      0.02838048807929
  C   -3.52472512166215     -1.07684158582714     -0.04046286633625
  C   -2.28784877190674     -1.67737562037470     -0.01823199317994
  C   -1.27696722564137     -0.66637987654646      0.01923662773958
  H   4.19379361085932     -0.28209045429924     -0.45714174318637
  H   1.93041823411839     -3.53563328376893      0.29599025507283
  H   0.74463427168196      2.59949781572376      0.23772694647580
  H   -1.67727094583479      2.73678060860003      0.19662394763396
  H   -5.28636613998399      0.96288192994169     -0.15052052973632
  H   -4.14197923290617      2.22239693799403     -0.10811185648981
  H   -4.47928380451605     -1.57899678882813     -0.07217150861795
  H   -2.09000015236755     -2.73593717021614     -0.03133258337067
