34
Coordinates from ORCA-job ./opt_b97-3c_parallel
  N   -3.59490471671389     -2.75760592274612     -0.31311477980292
  C   -2.89672781424398     -1.83378718431048     -0.19039690569810
  C   -2.08428707649314     -0.69450153432409     -0.03896159840875
  C   -2.71929391573253      0.46220154878219      0.49297635740329
  N   -3.89484582348313      0.28431727174155      1.15052676809242
  C   -2.29170858034442      1.76269678322435      0.25790037865933
  C   -1.09242899073675      2.22971564557575     -0.27925986623698
  N   -1.12674617190606      3.45371734289563     -0.85059035201771
  C   0.19734846821813      1.56189196236077     -0.17402753783327
  C   1.38438024541805      2.34348663275548     -0.03048968518594
  N   1.31956644457324      3.77660753332286      0.04664209631572
  C   2.62478185287867      1.74808254814781      0.05569771254801
  C   2.76454859624293      0.37052630336736      0.08400069788265
  C   3.88839538820865     -0.45299772153242      0.28179416300815
  C   3.44044276202270     -1.76054817000266      0.37284354629220
  C   2.03275899983058     -1.80596979836333      0.20596342636169
  C   1.27168057661891     -2.95964521155207      0.39563002131399
  N   0.62617970550083     -3.92203214166050      0.53339588397147
  C   1.58163879870524     -0.45749243110814      0.00373659261640
  C   0.32013296465895      0.13799437639038     -0.19534679894203
  C   -0.78207397818941     -0.75044567189118     -0.56023805585728
  N   -0.48162103127282     -1.74402206355688     -1.40606090399883
  H   -4.35357552904850     -0.60985292316035      1.10988104335824
  H   -4.49358302773827      1.07499148330085      1.30122641368884
  H   -3.03967827560065      2.52820807761336      0.43426663106674
  H   -1.97851986354024      3.98430648161767     -0.79435788349090
  H   -0.24729114054684      3.96720598625650     -0.90725373854631
  H   0.94461985973764      4.07585173099823      0.93994877940141
  H   2.24937521880186      4.16325362891135     -0.02727203443282
  H   3.50130419258205      2.37601373578906      0.17378152865428
  H   4.90686272881515     -0.11624804340360      0.39194987883153
  H   4.04549538348819     -2.63119966609322      0.57216388746976
  H   0.48597327828204     -1.90338586249434     -1.62770908386563
  H   -1.07644359339392     -2.55538625055270     -1.46657222122203
