35
Coordinates from ORCA-job ./opt_b97-3c_parallel
  N   -5.60894924828871     -0.68888657302970      0.75181940957617
  C   -4.49946923079798     -0.39414737701254      0.55031924047458
  C   -3.17511649987345     -0.03176340791301      0.31050336468146
  C   -2.72854813114702      1.25997689541097     -0.04175083553903
  N   -3.52634494757294      2.35677426128770     -0.17654058728924
  C   -1.32568398520759      1.21348520456237     -0.19159178508822
  C   -0.39779130410592      2.23815093993576     -0.31690695685110
  N   -0.78100406868484      3.56185854120821     -0.42612816088911
  C   0.95493666296465      1.89964006515745     -0.29886347208069
  C   1.43713460839411      0.60011281224750     -0.15241721652953
  C   2.87084793728384      0.46169544324621     -0.01626794200409
  C   3.62442395971547      1.64133534938904     -0.19163991829685
  N   4.30561836586577      2.57731924614789     -0.32566587099138
  C   3.64785394934170     -0.63153566161614      0.43046077253664
  N   4.93918497831844     -0.40168289570570      0.79430322088041
  C   3.22905894920732     -1.97475066262621      0.51341436019758
  C   2.05584450100345     -2.49618926059196      0.05596162178274
  C   0.87230383890218     -1.86391839941946     -0.35516322965937
  C   -0.00128621797648     -2.70927103963919     -1.05483776449840
  N   -0.72392078843346     -3.43702046860555     -1.61338071798317
  C   0.47405752624177     -0.49584665672817     -0.14230812469251
  C   -0.87838519295965     -0.14694861802863     -0.03465222326286
  C   -2.06318904497246     -0.91526224250456      0.30891464129713
  N   -2.17178293510442     -2.19392125758023      0.70323692758023
  H   -4.51833944710992      2.17705476140419     -0.16324690965793
  H   -3.25816789259683      3.01269555972174     -0.89278682170373
  H   -1.57090265296425      3.82263550260925      0.14384422698437
  H   -0.02637652658513      4.22120298773882     -0.32425956156381
  H   1.66650976937578      2.71080553358466     -0.34633383200685
  H   5.56704066234335     -1.18167968223107      0.85208734564294
  H   5.36269225034677      0.49103528945240      0.60713939604206
  H   3.97264214307508     -2.68331985700436      0.85471463887237
  H   2.02672800319583     -3.57760351648173     -0.00924735381104
  H   -1.59693339401300     -2.89983531614716      0.26787282598513
  H   -3.10559142908117     -2.51037523823962      0.91485661456440
