25
Coordinates from ORCA-job ./opt_b97-3c_parallel
  N   -5.63068404222886      0.75508213278279     -0.06427571850708
  C   -4.50454239336384      0.46540172200446     -0.04132499364394
  C   -3.13131951061785      0.13051847665692     -0.01429578985048
  C   -2.78229938450800     -1.21921817606894     -0.02204063428176
  C   -1.52924051142144     -1.78920304384543      0.00372407361420
  C   -0.24966138713936     -1.19980683406112      0.02771060219646
  N   0.75596916898521     -2.10021152061086      0.04167146541658
  C   2.02441057256042     -1.68563168187359      0.03540121417594
  C   2.37938219156922     -0.35965995084630      0.00746475213524
  C   3.61842187073648      0.33745290515971     -0.00680919333100
  N   4.85802426007705     -0.20865401669162      0.03119098014390
  C   3.32570129727612      1.72874011011504     -0.00521818533975
  C   1.95471089169847      1.90634341363761      0.00467575399911
  C   1.32877873198627      0.63181987125336      0.00916295927969
  C   -0.00457284542452      0.25366060506090      0.02747222743818
  N   -0.92061561183528      1.26671809757772      0.05059418521471
  C   -2.21634539164363      1.22073431152243      0.03476382509794
  H   -3.61076365499097     -1.91582725076678     -0.04888711913851
  H   -1.49125907348274     -2.86967219660972     -0.00057562106736
  H   2.76658532385657     -2.47941401409332      0.05621399135246
  H   4.97100724628775     -1.17991206394572     -0.19626361449640
  H   5.64522586282336      0.37216663371634     -0.19525980474485
  H   4.06668978200933      2.51374161417366     -0.00888016277428
  H   1.43288387717622      2.84842155680068      0.00393996439459
  H   -2.69073420388595      2.19925331985175      0.06190983791641
