31
Coordinates from ORCA-job ./opt_b97-3c_parallel
  N   5.53908354898454      0.37849715792790      0.20819308608751
  C   4.38220604837896      0.25245993827391      0.11840100500589
  C   2.99115397422143      0.10576423048280      0.01998542637088
  C   2.21769498643660      1.28836041394753      0.00507143845799
  N   2.89350260978068      2.47493667469709      0.01188575593295
  C   0.82431059538982      1.38046139938881     -0.05175353435678
  C   -0.17708652252047      0.42076776367188     -0.06093350295163
  C   0.05686882927757     -1.03924761715452     -0.01074207757392
  C   -1.04201965467181     -1.89627979611291      0.06458210105447
  C   -2.37376010153107     -1.46849678742783      0.06103249762509
  N   -3.40017976594270     -2.37800809446159      0.10572819741270
  C   -2.61921872372250     -0.09630360783926      0.02960312598231
  C   -3.78712509998957      0.69150939423682      0.01485161801672
  N   -5.09232761106179      0.26927000696021      0.12516411907185
  N   -3.49667701535796      2.00750440839591     -0.15162597232534
  C   -2.15693459006689      2.08857329831586     -0.21377377128933
  C   -1.53193422679002      0.82557751049702     -0.09310560397818
  N   1.24018685849488     -1.67175351302249     -0.07024318886684
  C   2.47739873952114     -1.22494978964954     -0.09902815409553
  N   3.39859406592054     -2.21521412502075     -0.26405895878912
  H   3.87565495921026      2.48287285103716      0.22590191467090
  H   2.39090927879406      3.30986600553504      0.24832013292071
  H   0.46240784432631      2.40107118495886     -0.06930486026378
  H   -0.81963478681972     -2.95442201438791      0.07350658188047
  H   -4.25687583442290     -2.09147735022752     -0.34098582517938
  H   -3.15094433141115     -3.33004963184316     -0.10436550196838
  H   -5.73093297258489      1.04558223655121      0.21570855142064
  H   -5.25486565373931     -0.43084799222670      0.83313653281004
  H   -1.68749365584870      3.05153646447104     -0.35108754166390
  H   3.05890463800357     -3.15179496264331     -0.14313543474849
  H   4.37704525834110     -2.04419985283156     -0.11676496437050
