29
Coordinates from ORCA-job ./opt_b97-3c_parallel
  N   -2.89130732139233      3.33993487164465     -0.31109259970544
  C   -2.76008022426276      2.18759714542606     -0.19638870404046
  C   -2.62116919277707      0.80455850132605     -0.05674432696930
  C   -3.70374774779455     -0.10768386076771      0.06253773272477
  N   -3.32258781251313     -1.38058010919140      0.18367705460788
  C   -1.96305773377810     -1.34064338479817      0.13454064357700
  C   -1.08791386670318     -2.39077161756254      0.28438534339828
  C   0.28693149385313     -2.19035081174283      0.19771722316838
  N   1.12853095898069     -3.33202561566674      0.32953830191243
  C   0.83126176869799     -0.90716474427830     -0.03683288887955
  C   2.22795914661515     -0.76420340588648     -0.43107109620897
  N   2.80059750751429     -1.81128754210734     -1.06651515594083
  C   3.04188463666953      0.34209295275007     -0.21599437314038
  C   2.68493412398296      1.61711391749194      0.22113250330639
  N   3.64877943710487      2.44777827433570      0.68546525221561
  N   1.47703994703577      2.20091297196271      0.15762081535885
  C   0.34245176715218      1.59555210389678     -0.06319654877202
  C   -0.05576069529281      0.23290530096442     -0.05564718565289
  C   -1.45245168086131      0.00181980533559     -0.02389952432929
  H   -4.74833152765890      0.16812032883247      0.05708725017321
  H   -1.48124475813547     -3.38148351038960      0.47876844748087
  H   1.77501619561196     -3.24103430698361      1.10217473509956
  H   0.58064560226841     -4.16623900184677      0.47593496136571
  H   3.78844371139512     -1.78969412307714     -1.24514034976664
  H   2.35744563241723     -2.72086935953053     -0.98322861287360
  H   4.09644198585506      0.19234622640081     -0.42384261537052
  H   3.41788134648375      3.42177590554874      0.76822409876740
  H   4.61530153913059      2.18290200165031      0.68751950022273
  H   -0.47251864249913      2.29421768966282     -0.20051549332909
