32
Coordinates from ORCA-job ./opt_b97-3c_parallel
  N   -3.94079639544200      3.05695372419949     -0.21672099846499
  C   -3.33105597264841      2.06703822484843     -0.13751889650468
  C   -2.60433381479908      0.86598855314550     -0.04778189960797
  C   -3.32416505544846     -0.31930507545878     -0.35308106411700
  N   -4.51494076583367     -0.20257903188553     -0.98162117527464
  N   -3.01329348184238     -1.55817639224224     -0.00447515688706
  C   -1.82930894793121     -2.03759506737619      0.30575284165339
  N   -1.86734021516362     -3.28270190476549      0.83929775439779
  C   -0.52290864231010     -1.47138482853465      0.05770359674479
  C   0.51475299366981     -2.38594309360484     -0.19319488952495
  C   1.83624399110399     -2.00782635597980     -0.31763000391196
  C   2.16316104481682     -0.67666786855525     -0.12767958513823
  C   3.37501974446913      0.04840748959052     -0.13558001335788
  C   4.66764493816754     -0.41446732521145     -0.37116532056656
  N   5.76119196461272     -0.76648616738588     -0.56843593670897
  C   3.00613287865766      1.39306406360619      0.13080740802773
  N   3.85353175329009      2.44026212172278      0.27760543822606
  N   1.67607461496323      1.53419293857291      0.29446238060649
  C   1.12825053863138      0.29202117984284      0.13782338340071
  C   -0.23335628383842     -0.07101153528837      0.17622356909781
  C   -1.23423965533665      0.97546131367075      0.31181437751163
  N   -0.79997923153386      2.17237654166863      0.70510370662865
  H   -4.93204515724595      0.69736261331410     -1.13946572783546
  H   -5.11354548039512     -1.00807847761673     -0.98404631990777
  H   -1.08838338136598     -3.62823364194906      1.36655371815671
  H   -2.77497098842419     -3.66956632659973      1.02870706567192
  H   0.25817499967913     -3.42286681700018     -0.35143575649105
  H   2.59758055475299     -2.74014567751421     -0.55030857636411
  H   4.78342248714525      2.33467700204038     -0.08895611100394
  H   3.45428621922568      3.35761668178492      0.18617560070051
  H   -1.42427459556496      2.96184997839846      0.67595976220311
  H   0.22187997633870      2.32749379036201      0.71036743913983
