26
Coordinates from ORCA-job ./opt_b97-3c_parallel
  N   2.86151955488501     -3.34195196461340     -0.00476197074838
  C   2.08142370029621     -2.48308507155908     -0.00074254208308
  C   1.09211122676282     -1.46919689085184      0.00175711245960
  C   -0.26025506220126     -1.82350488551366     -0.00358850790658
  C   -1.29762657425199     -0.88875818746168     -0.00250594155740
  C   -2.59663748793523     -1.41795804685952     -0.00533412430357
  C   -3.84742420013963     -0.82972576680993     -0.00447758514119
  C   -4.16660634142980      0.52248758251540     -0.00050262220154
  C   -3.29550887084435      1.59574774132119      0.00283908085785
  C   -1.90578626506930      1.58636454636064      0.00422365981185
  C   -0.96852933626043      0.55648710983038      0.00298318115260
  C   0.40370000778558      0.90089387941084      0.00321438521209
  C   1.10393367204256      2.10895399403025      0.00388731229027
  C   2.47176957211746      1.75385731506058      0.00674158243031
  N   3.53789925456928      2.59331993877255      0.05521338078532
  N   2.67472628590330      0.41077513876218      0.01056708858654
  C   1.44582148486989     -0.11968453771620      0.00966293355178
  H   -0.51140737478106     -2.87370828702281     -0.00874819748238
  H   -2.61905143277289     -2.50208600790365     -0.00884409399625
  H   -4.68421113243747     -1.51657446955982     -0.00704152093002
  H   -5.22314236347550      0.76327915385122     -0.00045395680076
  H   -3.75066318135953      2.57817311156951      0.00547447865388
  H   -1.46574805141353      2.57575159094707      0.00758880076736
  H   0.71293112587043      3.11341653622065      0.01044606680091
  H   4.42644243120845      2.17555777420989     -0.16281668495953
  H   3.41562024146097      3.53792568980924     -0.26115434884970
