28
Coordinates from ORCA-job ./opt_b97-3c_parallel
  N   -5.58032503381194      1.01510008196094     -0.03683226339238
  C   -4.43901866932722      0.78470461866386     -0.00855051959592
  C   -3.07468331082224      0.43381831648346      0.01770054780897
  C   -2.15390258895488      1.48420189992993      0.18816157293738
  N   -0.85059661517362      1.54196816145560      0.20461487341373
  C   0.04604709419299      0.53677671730900      0.09503313791471
  C   -0.21277377676582     -0.92133749050200      0.06561730086527
  C   -1.47748022414439     -1.49908056106620     -0.03268570072726
  C   -2.76079848679445     -0.94900468026632     -0.08910629729686
  N   -3.78851769346527     -1.81335065061550     -0.25161737076664
  N   0.79313056706101     -1.82435688062243      0.12045612082536
  C   2.06748789478143     -1.43915302402762      0.09361532302897
  N   3.00319129275959     -2.43299869481049      0.18366955228959
  C   2.42632318558103     -0.09607469818867     -0.04843282671291
  C   3.61804204183183      0.63198794989429     -0.14964501942392
  N   4.89970610498436      0.17098835609036     -0.24844171825763
  N   3.38072635341901      1.98576172508357     -0.11531735382179
  C   2.06329264531199      2.13880220594263     -0.01472813097721
  C   1.38673336753612      0.88625974801344      0.01575086829706
  H   -2.62755881750815      2.45483436662210      0.31609539687452
  H   -1.43257446056835     -2.57970444637939     -0.08832902075932
  H   -3.62690397592925     -2.80213923899427     -0.24413763966485
  H   -4.74128612789166     -1.49587304826877     -0.22384726614570
  H   3.87392391794848     -2.19149623962883      0.62729273949916
  H   2.62425014326590     -3.32176471903600      0.46944694951120
  H   5.03128045785157     -0.67253183705294     -0.78274552144919
  H   5.56553115424176      0.89293678523316     -0.47581482203168
  H   1.61002450209037      3.11610801047718      0.02346782285804
