31
Coordinates from ORCA-job ./opt_b97-3c_parallel
  N   -4.27429724158600     -2.25242116100019      0.41686416266452
  C   -3.29640920139102     -1.63275638505002      0.28523303833037
  C   -2.11822434145945     -0.88249368075608      0.11574274782826
  C   -2.23280601780339      0.50310632522773      0.34917696836827
  N   -3.37425897999551      0.95552926667280      0.90899600961902
  C   -1.29363947979953      1.48181043001413     -0.08242194234921
  C   -1.78409565148643      2.79852750058576     -0.18007994300101
  N   -2.17823108127300      3.89117887827503     -0.26502391754496
  C   0.05335759671914      1.29728815486723     -0.44887698630796
  N   0.68066793447811      2.31626147359835     -1.04291803409272
  C   0.87535612190443      0.13669610538305     -0.14374470291035
  C   0.38506709145410     -1.20488101747418     -0.19310075343021
  C   1.32596049879498     -2.26450322176415     -0.04563407317333
  N   2.62373651028987     -2.12716395396933      0.12399736590414
  C   3.10634693346741     -0.88383717878446      0.17940337475157
  C   4.42104713928026     -0.46849954026499      0.36965128007747
  C   4.40758917991720      0.93245304380524      0.42667565679018
  C   3.10947227377463      1.42526359439441      0.24050226485820
  C   2.24695705216045      0.31720798911662      0.07715225784101
  C   -0.98073487989176     -1.59562948088015     -0.35772705716041
  N   -1.22169348132528     -2.81532935333483     -0.87429774220114
  H   -3.57549226032750      1.93990865568924      0.92306848949655
  H   -4.15119521165822      0.33314122415173      1.04823220687582
  H   0.21350574058144      3.18385900875517     -1.24212923252279
  H   1.65587070045841      2.22575705047570     -1.27623142941647
  H   0.96331938148594     -3.28147296318896      0.03635442213251
  H   5.27291947298126     -1.11777918570207      0.48458840889478
  H   5.27316034266065      1.55413713574275      0.60358298042861
  H   2.83928762819563      2.46369685471654      0.34347778576384
  H   -2.14633555205095     -3.20866948462297     -0.88259765668882
  H   -0.47939675316087     -3.36328999567032     -1.26261823632553
