33
Coordinates from ORCA-job ./opt_b97-3c_parallel
  N   5.53634817039001      1.11010720919690     -0.77622191801575
  C   4.42218004649110      0.85611153924679     -0.55816178225095
  C   3.10623856013678      0.44810271487224     -0.30378824494056
  C   1.96775772804776      1.24263394335976     -0.19159762531752
  C   0.84288697135999      0.39947965190522     -0.01007923488435
  C   1.34268314726199     -0.96105379256807      0.00578414114651
  C   2.72675977376941     -0.92955502331360     -0.18989842220539
  N   3.59383962948362     -1.99142964688882     -0.25606423712609
  C   0.47885195807715     -2.03068573271771      0.22986989840085
  N   0.94983254856227     -3.29853923104140      0.39838938191309
  C   -0.90620135308301     -1.76505551550515      0.21516306531687
  C   -1.76303960878404     -2.86557222950939      0.38456472620171
  N   -2.41997630880646     -3.81575448948392      0.53681486310722
  C   -1.44852888596758     -0.44888834282696      0.03924409462021
  C   -2.81997377991482     -0.39431508082916     -0.19671196293246
  C   -3.73362346688089      0.65306037709022     -0.35004696550975
  N   -5.00104429480487      0.31127595570042     -0.72796951256671
  C   -3.46787002450820      2.01167466407081     -0.13929462046056
  C   -2.26904088374915      2.56692749939779      0.22273035160672
  C   -0.98697511106933      2.01885714272986      0.36261667848275
  C   -0.06512318226562      2.98508139544938      0.84422854274350
  N   0.60340459901244      3.83548073252078      1.26981884210713
  C   -0.52502613066396      0.69052185770128      0.10487874292378
  H   1.97505047981299      2.31143857257507     -0.28550587021737
  H   4.53289109315485     -1.74710815095505     -0.53291825820121
  H   3.25525426628795     -2.79722552445137     -0.75878840146326
  H   0.28877343068164     -3.99810123650793      0.69702641384333
  H   1.86000763058064     -3.38569821309503      0.81939176246838
  H   -3.27484633074488     -1.37000882597462     -0.31530922495956
  H   -5.73701288752655      0.98510616808883     -0.62063372886327
  H   -5.28829734088527     -0.64828822366384     -0.65721448937754
  H   -4.30402244948805      2.69383238837738     -0.22961282135239
  H   -2.31153006046338      3.62777197815145      0.43292023716161
