30
Coordinates from ORCA-job ./opt_b97-3c_parallel
  N   4.55762543030292      1.13070899398293     -0.59943380727226
  C   3.32435937787881      0.71479948887456     -0.18885906503987
  C   2.33501766792414      1.66589988056455      0.02244963449857
  C   0.95965941348894      1.49474870168504      0.20782195228843
  N   0.28504792367119      2.63700925830694      0.52021348044180
  C   0.17596854308169      0.30308393152320      0.03733893743127
  C   0.78914819868740     -1.02538829823541      0.03957427516039
  C   2.16078722528989     -1.30164763777368      0.17558469588623
  N   3.26784591170419     -0.60889341880376      0.02675930296549
  C   -0.05017626099908     -2.18472111393927      0.00955403507345
  N   0.51523607871282     -3.46863905423890     -0.03529310304553
  C   -1.42822467191844     -2.07393277674501      0.05489110942072
  C   -2.03064823005986     -0.83068129665265      0.05415839266795
  N   -3.34940120590468     -0.57756352087980      0.01750627644107
  C   -3.43789647513919      0.77168418331890     -0.10033203120426
  N   -4.67239612344458      1.35638258395665     -0.15877264384043
  C   -2.19201798486475      1.42230109606422     -0.10767386457882
  C   -1.22563448349764      0.39089137332107     -0.00915507630136
  H   5.30936555701496      0.48201848681193     -0.44455076120935
  H   4.78926033101238      2.10656547944045     -0.57556327554752
  H   2.67326738244524      2.69691724173787      0.03783879654604
  H   -0.63317343024522      2.53122561001597      0.92394443525519
  H   0.82683927349817      3.40004217553514      0.88437946681638
  H   2.37137176880472     -2.33029307572639      0.44543473192338
  H   -0.18734961980516     -4.18638413844459     -0.11071503079431
  H   1.20477271898219     -3.59661809503652     -0.75823367532278
  H   -2.05253835813978     -2.95893182133225      0.02955651618730
  H   -4.72608380788997      2.25975964301664     -0.59550097867495
  H   -5.41130543708670      0.72618505412905     -0.42345719502722
  H   -2.05545460450477      2.46461673592270     -0.33830713584511
