33
Coordinates from ORCA-job ./opt_b97-3c_parallel
  N   -0.77289564509265     -4.32554213052353     -0.31456690713550
  C   -0.34065901673857     -3.24527563399949     -0.26308847451604
  C   0.18736871617132     -1.94125278428019     -0.19356836261572
  C   1.58011858829632     -1.80390184395410     -0.21558250294155
  C   2.14262830564940     -0.56308113040092     -0.10042396967713
  C   3.49790595038706     -0.13435619876416     -0.00386750390338
  N   4.59525546165543     -0.95374364400007     -0.02566883851752
  C   3.50207815892079      1.24622280004593      0.22188858190561
  C   2.17308382938560      1.70452861058082      0.25120726715707
  N   1.81073850964202      3.01142059280801      0.47372163746682
  C   1.29569234020868      0.60156456105084      0.01827326813021
  C   -0.09987229889341      0.52459212699554     -0.09584445863983
  C   -0.83705508382169      1.70826612309947     -0.31692408094692
  C   -2.19362241130258      1.99861174737466     -0.23649140861026
  N   -2.55153467028304      3.33097802809664     -0.42129633580983
  C   -3.24375969439995      1.13193558763877      0.08050752883474
  C   -3.18252086183137     -0.24972006614212      0.18643562443431
  N   -4.38015266676492     -0.91519032909096      0.37729732758661
  C   -2.05654147570995     -1.07821496723897      0.04528901993735
  C   -0.69878369347059     -0.81306437536149     -0.08129925728690
  H   2.18168462398041     -2.70093323949042     -0.29070783979733
  H   4.48247115041732     -1.83502359891706     -0.49643141625978
  H   5.47374268786484     -0.51301431291012     -0.23758652889183
  H   4.37720367024910      1.85879636024446      0.37995419478911
  H   2.50925907232638      3.56104501083144      0.94874729375149
  H   0.89516266800615      3.13190709546030      0.88115299190907
  H   -0.23362567485076      2.54493823448811     -0.64197828586593
  H   -1.86994969317484      3.89296365697358     -0.90296788989225
  H   -3.47813741809482      3.47869761140761     -0.78464740675790
  H   -4.22167186225688      1.58549128566706      0.19722265145834
  H   -5.13447305796824     -0.38056301428078      0.77066606589674
  H   -4.31913680619239     -1.84581434901395      0.75213723074964
  H   -2.29862375421404     -2.13328421999513      0.07390031045868
