27
Coordinates from ORCA-job ./opt_b97-3c_parallel
  N   2.76634063715359     -2.93440572852289      0.12139720286923
  C   2.40561597564076     -1.82540943264233      0.07552213132487
  C   2.07767060859401     -0.47265260592351      0.02883577266182
  C   3.09323890471887      0.54357003668538      0.00165414352182
  N   4.41791950089087      0.27050918843443     -0.02444813834540
  C   2.49157095963965      1.80708526088510     -0.05454690512388
  C   1.11206687600055      1.61329438417615     -0.06254019672375
  N   0.15796754520916      2.54183554445246     -0.14030483134537
  C   -1.09895458848921      2.12243321416813     -0.09932389668565
  C   -1.53063776724261      0.78566329706368     -0.00915426166817
  C   -2.92570680369351      0.53788832161515      0.10699987421480
  N   -3.75969437036293      1.57281738520730      0.37185178173099
  C   -3.57956778905049     -0.69381387723036     -0.14298109316788
  C   -3.04487844549468     -1.94136321164780     -0.29188986167822
  N   -1.80403746888829     -2.40074550245152     -0.06680555341955
  C   -0.74562058997178     -1.65629325048668      0.12247108523542
  C   -0.51091371693509     -0.25858821531319      0.01512320052079
  C   0.82231973600545      0.17505007944901      0.00352186564592
  H   4.72083164726963     -0.66075688703962      0.20408305561671
  H   5.06824033083285      1.00480449838535      0.18530195855139
  H   2.99413523526331      2.75882752790558     -0.10263511225034
  H   -1.82969317280623      2.91257845590799     -0.22147619016095
  H   -4.73532899682408      1.39032886452992      0.51402131554123
  H   -3.41024504455647      2.42596566429773      0.76331267958838
  H   -4.65984434698145     -0.63949187268636     -0.22854780252387
  H   -3.74705093243222     -2.72446863317911     -0.56259050802046
  H   0.13563919061029     -2.23825580194001      0.36570012989033
