27
Coordinates from ORCA-job ./opt_b97-3c_parallel
  N   1.19315099874437      3.43698405222776     -1.14935116970592
  C   0.59119101114463      2.53794262674339     -0.72601440926940
  C   -0.24529353309000      1.47669938079534     -0.30763775519856
  C   -1.60888794730270      1.77616929474015     -0.16804909863249
  C   -2.51432307897310      0.78569939847151      0.12353620423184
  C   -3.91301958338903      0.80300719875937      0.31539668814331
  C   -4.33668016537181     -0.51926682830166      0.47911993746023
  C   -3.23219127927842     -1.37417344184948      0.37530050815024
  C   -2.07749574816145     -0.58927734269845      0.15996957196839
  C   -0.73890050960994     -0.93903719962948     -0.08171657926520
  C   -0.41779419202758     -2.26372614153727     -0.39152262793849
  C   0.80634812816819     -2.85371215042969     -0.65153140540628
  N   2.04390112760997     -2.44335933531268     -0.45338958132720
  C   2.40006660215110     -1.25741057502605      0.04150363805301
  N   3.68300385204254     -1.21941960284781      0.45181419317325
  C   1.62498821284560     -0.04576715845481      0.12470582389682
  C   2.37848539695305      1.05078795786232      0.60857168365334
  N   3.09292654076657      1.82005879913405      1.10961522503765
  C   0.24993537998715      0.15565245692030     -0.12853725567314
  H   -1.92515239670008      2.80241091404358     -0.29804382236798
  H   -4.53695768341630      1.68275866576942      0.32962478805292
  H   -5.35142618493937     -0.83485768511502      0.66398158505411
  H   -3.26853780130420     -2.44711799757662      0.48080089328885
  H   -1.26378470845875     -2.92206743945156     -0.53217940471192
  H   0.75504933940070     -3.86292548158224     -1.05028762151966
  H   4.13095353860735     -0.37230629149869      0.75185573923314
  H   4.23890298940123     -2.03739354775594      0.28102203381900
