25
Coordinates from ORCA-job ./opt_b97-3c_parallel
  N   -4.02865332905680      2.36572772994570     -0.00484250142540
  C   -3.28085884740658      1.47841252759813     -0.00422998583613
  C   -2.36784292182931      0.38301085899590     -0.00308195293023
  C   -2.94859431274948     -0.89450838844179     -0.00288503274996
  C   -2.28488765742158     -2.10084602535841     -0.00162538934238
  C   -0.92015279243693     -2.35432442729471     -0.00024260456940
  C   0.20004134842751     -1.51637181019358      0.00015768342491
  C   1.45269048498136     -2.15660503040245      0.00175938523010
  C   2.65073746747934     -1.46858195945512      0.00219101354670
  C   2.65725480229392     -0.08463180308111      0.00097050231038
  C   3.68990458201009      0.85482160497175      0.00095858643321
  C   3.10189462723660      2.13374281264038     -0.00069991373253
  C   1.71297782630350      2.01612933595610     -0.00170643269155
  C   1.38509218605188      0.64106048861530     -0.00070043850778
  C   0.15668639371997     -0.04028197830912     -0.00100195829366
  C   -1.02039203015640      0.72405730862137     -0.00226903940856
  H   -4.02950092383869     -0.92690387158208     -0.00375594162711
  H   -2.91584171465672     -2.98082080390436     -0.00164859623446
  H   -0.67079401792836     -3.40925995491187      0.00068801826954
  H   1.46667151640620     -3.23779720979467      0.00265515111875
  H   3.58353536169480     -2.01929149025673      0.00344381797129
  H   4.74628471201366      0.63704800054093      0.00200010670736
  H   3.64258998872495      3.06807237432965     -0.00114562633290
  H   1.02705737828845      2.84816006041119     -0.00308171652209
  H   -0.84748646945138      1.79081145175959     -0.00270158960811
