28
Coordinates from ORCA-job ./opt_b97-3c_parallel
  N   3.72022865155718     -2.00601616822638     -0.20541120885055
  C   2.72092773361511     -1.06219666249016     -0.09050269695087
  C   3.11808815834519      0.27098627761871      0.01277888225206
  C   2.27543088990232      1.37493490646258      0.11731490773981
  N   2.86740246017598      2.61308707262367      0.23663798763700
  N   0.94700005761089      1.45023702070579      0.05810754009118
  C   0.05068643332747      0.47588306174671     -0.01770841958949
  C   0.31955444188094     -1.00877487998320      0.04829798098881
  C   -0.76724577464589     -1.87386234575322      0.16253854125431
  C   -2.10093486672050     -1.45882580527101      0.11747942612836
  N   -3.09871381774198     -2.38097072494352      0.18134196147614
  C   -2.37999234092529     -0.09054854745822     -0.05789261709648
  C   -3.57649681812938      0.62862939401665     -0.14518147863903
  C   -3.25428581104085      1.99926692508092     -0.27322223959426
  C   -1.87448415867706      2.14049855138984     -0.25613916881877
  C   -1.29650964490316      0.84841722498418     -0.12862585563509
  N   1.50954340607276     -1.60679475718483     -0.03055562611639
  H   4.58290829912440     -1.72306042947464     -0.63541455069043
  H   3.38676428152719     -2.91438853962082     -0.47945632086428
  H   4.18463393769357      0.46560044108610      0.01509029599905
  H   2.23139179898162      3.34313960447099      0.50804657989707
  H   3.77982583981835      2.66208888084413      0.65359606403314
  H   -0.53473420070058     -2.92825735729543      0.22707794041351
  H   -4.03079975908608     -2.06198144797780      0.37133368685698
  H   -2.88024988016052     -3.29692916901284      0.52962538411225
  H   -4.57950016125784      0.22630865784400     -0.13086866481612
  H   -3.97112257998255      2.80017482339698     -0.37053485597611
  H   -1.31773737976125      3.05959469662079     -0.33168015584179
