32
Coordinates from ORCA-job ./opt_b97-3c_parallel
  N   5.67612661190976     -0.83360243142174     -0.26412600876805
  C   4.53405466587490     -0.61799682184596     -0.20573797281962
  C   3.13781244554432     -0.43991998124219     -0.10316708504955
  C   2.62159803821588      0.80761609402492     -0.37273516447940
  C   1.31434628313236      1.30461476738112     -0.29200850341710
  C   1.21754662411370      2.65056666681529     -0.73634934191813
  N   1.20774084281089      3.72309143225299     -1.18296527030572
  C   0.11966300045016      0.61551298808976      0.04748044393577
  C   -1.06752900583455      1.33346449797594      0.30499825184055
  C   -1.06262474965494      2.67329841457100      0.74052235532057
  N   -1.22160998918849      3.73530900075207      1.18902609292906
  C   -2.36029091095152      0.72181108486253      0.22796970040171
  N   -3.47679977493871      1.45653712492354      0.47019562229816
  C   -2.41620957211517     -0.61814246998999     -0.12939313953118
  C   -3.50578623567790     -1.50114889860702     -0.32319666935141
  N   -4.82847095142634     -1.14495817009396     -0.38453970044850
  C   -2.98816729343371     -2.82148921960555     -0.40660040089631
  C   -1.61341160817676     -2.76458208726753     -0.28563439305345
  C   -1.21785483649243     -1.40697695294135     -0.13512340909107
  C   0.05146293416715     -0.85964398836829      0.04332540499073
  N   1.05490798543724     -1.71924093474109      0.27196642441076
  C   2.35441963200056     -1.57936290494626      0.31625003901307
  N   3.03417543056233     -2.65101211670131      0.77947223421203
  H   3.35235051772352      1.53937063439401     -0.68906471599932
  H   -3.34978263427830      2.37551794145312      0.86564138215297
  H   -4.28631182781958      0.96278140829662      0.80699266530908
  H   -5.02738890997537     -0.27016186405129     -0.84516398579590
  H   -5.45826760928728     -1.87385079568046     -0.67762292264393
  H   -3.58013874208316     -3.70951707793838     -0.56698513304892
  H   -0.93480029072922     -3.59980106487901     -0.32636540122962
  H   2.51467395677202     -3.48555167967424      0.97980359307717
  H   4.03739224272970     -2.68197617591792      0.79033348194638
