31
Coordinates from ORCA-job ./opt_b97-3c_parallel
  N   5.77789596793566      0.05692337007816     -0.09493694620298
  C   4.62505137990063      0.23556783881597     -0.09141054888350
  C   3.22817325094580      0.39005596613581     -0.07528955436510
  C   2.71946255616163      1.69742487575262     -0.10816809372092
  C   1.43434553748728      2.15636375515041     -0.07093552936294
  C   0.21070132970946      1.44066532520700     -0.00900172588080
  C   -0.96755363675161      2.19376731882806      0.03384727856588
  C   -2.25778271201277      1.65257767100353      0.06697209341862
  N   -3.38235151112104      2.46664532974747      0.10554223884104
  C   -2.35719098806571      0.27107970870591      0.00838129466726
  C   -3.42892588079287     -0.65698492467569     -0.10042506586010
  N   -4.75525092718916     -0.36468923702531     -0.17824061719190
  N   -3.00409743200956     -1.93876805357184     -0.11121667024000
  C   -1.65760701795204     -1.87730323614577     -0.03652644301460
  N   -0.87647736660077     -2.95397109540341     -0.03007158226112
  C   -1.17272442123831     -0.52332370927815      0.02009262913138
  C   0.12331381096840     -0.01923852743470      0.01887558302967
  N   1.12384222343328     -0.94081938535316      0.05294132602911
  C   2.43608617699019     -0.79896189341484      0.01997946240693
  N   3.12057982654450     -1.97951745621949      0.05030996925630
  H   3.48071626219071      2.46606279667906     -0.16280841830124
  H   1.32933809412809      3.23367442159625     -0.10144720649512
  H   -0.86595110572962      3.27258387640304      0.05557205363708
  H   -4.11302960047900      2.12678093665114      0.71176021075902
  H   -3.18203583717390      3.43397101856929      0.30336416187985
  H   -4.99355396300877      0.50174233774972     -0.63306261331233
  H   -5.33286644936355     -1.14341927207210     -0.45257215948725
  H   0.11748314408599     -2.76444993425520     -0.08383451560004
  H   -1.26709252205421     -3.86236296710254     -0.20621258242339
  H   2.61021034529588     -2.78206006682263      0.36966432396834
  H   4.10925268606541     -1.97159402739859      0.23263935351281
