24
Coordinates from ORCA-job ./opt_b97-3c_parallel
  N   -4.28873773142691     -1.66597070090251     -0.00342893212649
  C   -3.23479731291749     -0.82232186698751     -0.03022954427651
  C   -3.29192240320198      0.60047902951749     -0.02385981783743
  C   -1.97378947911647      1.00430650397331     -0.01438022148894
  N   -1.42986896074278      2.23793638133219     -0.00725136730457
  C   -0.11238760899510      2.29173934508793      0.00064228777968
  C   0.77225800326267      1.18322460228854      0.00089164563069
  C   2.13267863729425      1.46922552535091      0.00815836082139
  N   3.21897423953425      0.70820435573216      0.00563936669463
  C   3.22233678917225     -0.62822584470244     -0.00148962487038
  N   4.45100821013439     -1.16732512693608     -0.01426265997060
  N   2.25086033685911     -1.58915017499006      0.00451401685040
  C   0.96626208109299     -1.34861148705146      0.00248655333903
  C   0.21187949006249     -0.15495637852351     -0.00589060624250
  C   -1.17787458156475     -0.23902586684526     -0.01206921886056
  N   -1.97485029225590     -1.32340582679164     -0.02302150969381
  H   -5.19797481142244     -1.32548529515335     -0.25482848440636
  H   -4.09873142933756     -2.63463033514521     -0.19267093238603
  H   -4.17088260290125      1.22287901219003     -0.02019201735597
  H   0.32328081343460      3.28615004898685      0.00679227273831
  H   2.37166574814761      2.53019117041575      0.01633482407198
  H   4.54967881537903     -2.16561320336610     -0.01565063474900
  H   5.25398386029458     -0.56564478040576     -0.01692602966348
  H   0.35387239931438     -2.24573329017426      0.00740772330655
