33
Coordinates from ORCA-job ./opt_b97-3c_parallel
  N   0.81868941339107      3.19474588252403     -1.45426048795249
  C   1.05688509960982      2.16802631221596     -0.94112527366123
  C   1.36945042053488      0.97816273306283     -0.29112581784260
  C   2.71934954524453      0.87744468421791      0.17492686728963
  N   3.41232175538698      2.05183642937273      0.32047540279659
  C   3.37252084914747     -0.28882446944078      0.51602708986110
  C   2.94593236775353     -1.59469271442078      0.21134528987265
  N   3.89632503957838     -2.58317945365710      0.36405990019317
  N   1.77330293339724     -2.06172264853526     -0.16891780979936
  C   0.57753905292046     -1.43337872001640     -0.17997192958336
  C   -0.50900647551588     -2.30873734372615     -0.30463884026883
  C   -1.83964082384659     -1.91145937077159     -0.24887390639289
  N   -2.87024000387223     -2.83928835248820     -0.32381155833958
  C   -2.09380315716524     -0.55147344568857     -0.11089172348570
  C   -3.28451330637941      0.18347998046109      0.10020841497955
  N   -4.56154334476223     -0.29027820940907      0.04254531191946
  N   -3.04438660097549      1.46865813759530      0.41163511447335
  C   -1.70309473600403      1.62903088895623      0.36210404861422
  N   -1.18855105571785      2.81002882330503      0.73367548135877
  C   -1.01997512993923      0.38608553284423      0.01065183068631
  C   0.32078322273253      0.00804167201349     -0.11299172371061
  H   4.41436293147539      1.99926142684846      0.28213388106060
  H   3.02581622280865      2.88082563560227     -0.09789505447210
  H   4.36348550152068     -0.18671763249601      0.94217687966091
  H   3.62205376274931     -3.46601067338070     -0.03276787699622
  H   4.85910589662698     -2.33289593564306      0.22168818928208
  H   -0.26076912840041     -3.35752719212352     -0.39417526077711
  H   -3.63894704588990     -2.64852887975705      0.30123777976591
  H   -2.56095370593049     -3.79258708579184     -0.22046229490506
  H   -4.73696341680368     -0.99710863833541     -0.65355300868052
  H   -5.26156279217097      0.43473034529621      0.06443088360609
  H   -1.88669012645177      3.51266409242430      0.92000026090607
  H   -0.35210289025263      3.15404495234120      0.28215836774130
