27
Coordinates from ORCA-job ./opt_b97-3c_parallel
  N   -4.82806055884198     -2.02918278719064     -0.08237702658324
  C   -3.76082625928742     -1.56710530385782     -0.04402019708845
  C   -2.51313828369035     -0.93055854668762     -0.01015443332377
  C   -1.24859161078699     -1.52675456490312      0.04956903256053
  C   -0.28134609755417     -0.50387921921655      0.01541118163110
  C   -0.98786337848121      0.75580377568553     -0.04474030085416
  C   -0.24392575266265      1.93624848999458      0.04786491455113
  N   -0.83881777969384      3.15426243956886      0.14938358250163
  N   1.09362916939298      1.93906450892145      0.01990990859904
  C   1.77759985389816      0.78562771758226     -0.02132074595686
  C   3.17214015215516      0.94527948157864     -0.10969434487996
  C   4.21596130988384      0.03240784849897     -0.12707874711985
  N   4.25982185198552     -1.29025102073407     -0.03379018859438
  C   3.16519035988647     -2.04553028677833      0.08196540859448
  C   1.81803300376873     -1.74369020353693      0.10296160412196
  C   1.11869455656795     -0.52569224555644      0.02981273934852
  C   -2.35840888221132      0.49308363299721     -0.08192441656472
  N   -3.38796631717418      1.40894213916864     -0.14028811021213
  H   -1.08022659269240     -2.58939093444615      0.08885268431690
  H   -0.21664908078682      3.90828355890084      0.39113616732475
  H   -1.75554392210247      3.19158449763452      0.56393135415545
  H   3.47119837640482      1.98359304534990     -0.17307075026211
  H   5.19987965196831      0.48387518425334     -0.22432674887386
  H   3.39006633291660     -3.10533003448255      0.16292031568245
  H   1.18625750650025     -2.61954751018481      0.18400618971324
  H   -3.25207055593493      2.15263885851531     -0.80806610070949
  H   -4.30089186733451      0.99272341772058     -0.24900692646362
