31
Coordinates from ORCA-job ./opt_b97-3c_parallel
  N   1.95371636708990      4.15944216232940     -0.36325784841938
  C   1.50058038693194      3.09189050443473     -0.27987388957398
  C   1.14019160868576      1.72968396599174     -0.20700522849344
  C   2.18789391656031      0.77270817654603     -0.24225446735735
  N   3.48994615582881      1.16623658135746     -0.42187570307310
  C   1.82835961060364     -0.54943305905440     -0.04936543998311
  C   2.59197967283159     -1.73818722010064      0.07803046023415
  N   3.92836811528679     -1.87782186816919     -0.11407524586749
  N   1.84023008377544     -2.78971477659868      0.44353536268457
  C   0.56375138305148     -2.35296904538032      0.49414632326511
  N   -0.38069102506766     -3.18708411717944      0.94331158461003
  C   0.46164747507046     -0.93681344962290      0.15954759972043
  C   -0.58637288190904     -0.02456568311374      0.06038304853342
  C   -1.94449945377693     -0.42287736258678     -0.19477943717084
  C   -2.14978232787614     -1.66507857169922     -0.79956170555634
  N   -2.37902374205191     -2.70478913123265     -1.28303618269148
  C   -3.13515080011239      0.33844823395281      0.00809059282182
  N   -4.31841927315679     -0.24323422714740     -0.27058140386509
  N   -3.27313989069710      1.58057646887778      0.48647857931748
  C   -2.27607373161884      2.43757748731963      0.63846943430477
  N   -0.99367019070273      2.43164810979286      0.35036736815631
  C   -0.20411270745335      1.38689477465116      0.04905305179805
  H   4.17495342595469      0.65638372850995      0.11220221026497
  H   3.64514681906213      2.16304604597073     -0.38873456625696
  H   4.24531480092044     -2.83445077466065     -0.12856753055595
  H   4.34751275328488     -1.29802508355212     -0.82271398164690
  H   -0.06745673808647     -4.13233825440046      1.09519239246164
  H   -1.33031237919256     -3.09609313944845      0.62024513368275
  H   -4.39211612826235     -1.15188579731162     -0.69077275695966
  H   -5.13854581000862      0.32709413097214     -0.17370354029427
  H   -2.60537186376455      3.38371772055192      1.06138262031057
