34
Coordinates from ORCA-job ./opt_b97-3c_parallel
  N   5.54274258652262     -0.99666359136946      0.05617136582096
  C   4.45674955914701     -0.57174649934212      0.04454636941923
  C   3.14874042466360     -0.06170619777417      0.01722086137297
  C   2.99732779431956      1.27632761620034     -0.44482850908534
  N   3.98100655038349      1.81166408434483     -1.19853224289164
  N   2.02741321059851      2.10855537580986     -0.11600839348958
  C   0.84347139457147      1.80754651919059      0.38149956935729
  N   0.26018019884920      2.79114521780804      1.07838477440685
  C   0.07736412782090      0.59470811397498      0.16954443206435
  C   0.69200159755181     -0.71186905067633      0.15850358471908
  C   -0.17446113596293     -1.82816256872727     -0.01033533741109
  N   0.32077304462557     -3.15201986823287     -0.10562373002506
  N   -1.49446489879841     -1.75061769771480     -0.08276702022945
  C   -2.06739128465072     -0.55626700834728     -0.02663713029063
  C   -3.43273456433339     -0.24347117706068     -0.09371125627579
  C   -4.52007076821663     -1.10605809461849     -0.21927107617423
  N   -5.47516538710529     -1.76424541632731     -0.33328103244340
  C   -3.52922974731217      1.18534516541150     -0.09922115676380
  N   -4.71278902069975      1.85389671912788     -0.14885274206202
  C   -2.25160461259126      1.74861779890134      0.00522921232528
  C   -1.31273478714200      0.69250697148440      0.06090411193758
  C   2.09780272145740     -0.92626980608251      0.41696716203816
  N   2.46297976924972     -2.06400875372724      1.03182851874125
  H   3.99727333759296      2.81025827933121     -1.30023518752548
  H   4.83496814592070      1.30811277129317     -1.35927949980493
  H   0.74060695227090      3.66618626115501      1.18416780939176
  H   -0.64771821793614      2.66113852603897      1.48893961349124
  H   -0.47256251578589     -3.76120191900225     -0.25304799176321
  H   0.97427171684446     -3.27168538409843     -0.86921978562421
  H   -4.69757054973906      2.80950583087466     -0.45736639645883
  H   -5.51769666194141      1.33127522078980     -0.45190794037197
  H   -2.05591687470386      2.80629528283730     -0.05887323606842
  H   3.43670636679576     -2.31133357311754      1.08866197490937
  H   1.77852575283240     -2.80967757065492      1.10364895826402
