32
Coordinates from ORCA-job ./opt_b97-3c_parallel
  N   5.62701778471055     -0.30830705031115     -0.92884136607627
  C   4.52310079390847     -0.06022813887490     -0.64992746144383
  C   3.20495248466696      0.24537477324798     -0.31735704354474
  C   2.72358372804396      1.52161068728742      0.05696382207575
  N   3.47571611600987      2.62126350972294      0.15487626098070
  C   1.32251332558040      1.42114157001434      0.27840305690326
  C   0.38275025838952      2.38706390836430      0.56352637969189
  C   -0.95440354770837      2.05012189588945      0.55186667786665
  C   -1.40945592892030      0.74753058097813      0.27620588959350
  C   -2.81701879715334      0.56943585795083      0.06872750303634
  C   -3.63063024665728      1.71045225601265      0.21408905481010
  N   -4.35387843148660      2.61912965028367      0.31146922201032
  C   -3.49304880308123     -0.54949597658700     -0.50512802815664
  N   -4.69543536866740     -0.34239775045898     -1.07880156762009
  N   -3.13668490518577     -1.84146423528829     -0.51716913276594
  C   -2.02200398787058     -2.30779934644813     -0.00413929670976
  C   -0.82024001740903     -1.70108204183533      0.36245820967456
  C   0.06398677472096     -2.57016736113259      1.02324949519743
  N   0.80631181990419     -3.30501990421483      1.54342757881636
  C   -0.42467294154643     -0.31575610109216      0.19630588364679
  C   0.91551083813259      0.05942892026124      0.08356037906864
  C   2.12358851584118     -0.67014983766667     -0.29839847456754
  N   2.25273230657165     -1.93086320765858     -0.70989009143584
  H   4.46906982857195      2.57632058633818      0.01252433892178
  H   3.09487750204278      3.48637358962004      0.48799395008533
  H   0.66241042897983      3.41700839421728      0.74725795528050
  H   -1.68441786774283      2.82679474624081      0.71889937187950
  H   -5.14750700763425      0.55408102908426     -1.05986866536734
  H   -5.23229952495614     -1.15663555585153     -1.31687911772703
  H   -2.03740743196734     -3.38517179707190      0.14115616985502
  H   1.64053476165151     -2.64942637829073     -0.35501614138949
  H   3.18273851706078     -2.24651886733072     -0.93795242368993
