30
Coordinates from ORCA-job ./opt_b97-3c_parallel
  N   5.48899064902593     -0.22599886664814      0.12450841855653
  C   4.32696707387649     -0.30710282894355      0.13754612894875
  C   2.91875172740208     -0.34710778845861      0.12069686384774
  C   2.31460872389066     -1.58244108662709      0.43513204684899
  N   1.08642695869180     -2.00985583858355      0.38707292508263
  C   -0.05556958525046     -1.32705959098680      0.10892222207384
  C   -1.17250054984797     -2.12043667565423     -0.06495870725962
  C   -2.48014651143808     -1.61578137485951     -0.21035904140382
  N   -3.50700876355940     -2.48353751418373     -0.44513275129892
  C   -2.66881072690630     -0.24005900559616     -0.11243244886428
  C   -3.82749577035782      0.56076570834547     -0.11895935151940
  C   -3.45413678989030      1.88533493562531      0.08924821882909
  C   -2.05277231922474      1.94610070390328      0.21748640648238
  N   -1.33364576473934      3.09857812240275      0.44670940322396
  C   -1.52883690553743      0.62399898089132      0.07043636003300
  C   -0.20700475508436      0.14446868026639      0.03463132463895
  C   0.85050905440829      1.02810814214685     -0.18698713988504
  C   2.23679470984905      0.84985820391430     -0.20895763320173
  N   2.99036999587840      1.94809211192704     -0.50390325670666
  H   3.02551372053737     -2.34597132947760      0.74344917860018
  H   -1.01075495959025     -3.18942518118660     -0.03704245471598
  H   -4.44276031029434     -2.16393176835573     -0.27204994628048
  H   -3.35400502505992     -3.45321658433422     -0.23243606211448
  H   -4.84403141928244      0.22177108030213     -0.25240312823705
  H   -4.12159430960583      2.73044901996927      0.16360307325338
  H   -1.88445634676102      3.86077203612015      0.80929245446558
  H   -0.48520410538817      2.97291159938928      0.97890815472255
  H   0.54553518122744      2.02710461882103     -0.46766847075429
  H   3.96945532005712      1.83187703334061     -0.70101633163039
  H   2.54610005377445      2.73455280842775     -0.94014213863324
