29
Coordinates from ORCA-job ./opt_b97-3c_parallel
  N   4.44700309662189      0.42228623917017     -0.34998356704513
  C   3.29990629846317      0.25310035418519     -0.26045535841672
  C   1.94447769929251     -0.12847475299648     -0.19424783279924
  C   1.64127140899185     -1.51837458305677     -0.30094154509501
  N   2.62330916547269     -2.39075421843314     -0.61748674588521
  C   0.33662659721338     -1.90992827623143     -0.02325091521043
  C   -0.21933564677289     -3.18447598720259      0.15880998709528
  C   -1.56001361640073     -3.05185932331702      0.49634926678483
  C   -1.90669538220627     -1.68888266082179      0.50217394914187
  N   -3.10792331740375     -1.22414013249693      0.92995722606597
  C   -0.71201629840652     -0.92584888981494      0.17118816082902
  C   -0.45049348925491      0.43467738227725      0.05677206799045
  C   -1.45190705403049      1.40833446918517     -0.27444007160307
  C   -2.61232043472680      0.94543343089068     -0.92665547817723
  N   -3.58689496130257      0.57515393666663     -1.44736932896018
  C   -1.41462367231040      2.80431141715175     -0.13854613022005
  C   -0.40429992821118      3.60476929552482      0.33345505176272
  C   0.87776005418644      3.17502361783650      0.68677080447326
  N   1.46306590962659      2.01989902826947      0.50978854556646
  C   0.97128866652417      0.83434609859756      0.10796436840872
  H   2.46952852134833     -3.37384286838474     -0.49738749202485
  H   3.58048471157688     -2.08168516760294     -0.59445938055341
  H   0.29555779980020     -4.12828796933657      0.05786458205569
  H   -2.23959415897269     -3.85787303950835      0.72556181631443
  H   -3.79392885754967     -1.93617301375256      1.11962886536640
  H   -3.50823290429597     -0.42192709278858      0.46814709928066
  H   -2.32403924014050      3.30857940190249     -0.44096963629175
  H   -0.60984027821524      4.66179736894969      0.43865369556624
  H   1.52374325487792      3.92087501273629      1.14415268017845
