26
Coordinates from ORCA-job ./opt_b97-3c_parallel
  N   -2.85508667501647     -2.78836674635901      0.07430942614692
  C   -2.29322377405554     -1.77409209939676     -0.01617355283683
  C   -1.76987608350632     -0.46113869358379     -0.09380092677020
  C   -2.72540677226075      0.59611465087510      0.09153853734624
  N   -3.95171339079001      0.25718512761422      0.53282852029903
  N   -2.58155874905531      1.89123177719282     -0.16902673097420
  C   -1.44228329966318      2.49544941987339     -0.48313003094945
  N   -0.17646694411850      2.16135189892194     -0.39618400851768
  C   0.35032217903068      0.94780512323607     -0.17330593867995
  C   -0.37373581365678     -0.35604636435203     -0.22703693339134
  N   0.26690790597276     -1.52279463020402     -0.30718274084515
  C   1.59926580718662     -1.58103717137463     -0.18416668556955
  N   2.13523549752015     -2.80409860194451     -0.33095830851330
  C   2.37572664867054     -0.43507232275631      0.07954018347771
  C   3.73667455904612     -0.20435978335945      0.25587414820347
  C   3.93460421147993      1.20006731428750      0.34976935436740
  C   2.71879946896216      1.84146500079658      0.21344466559087
  C   1.71539694800673      0.84321260378192      0.05210615039561
  H   -4.65318281531894      0.97519200078600      0.53351758419396
  H   -4.22743678994539     -0.70022799489288      0.65937355543990
  H   -1.59441590327840      3.51613401284481     -0.82440378945559
  H   1.51167833352166     -3.58677639968384     -0.42039689765864
  H   3.10727760557697     -2.97348277512418     -0.15808149739099
  H   4.52275551750882     -0.94398297667438      0.29945927214067
  H   4.88918080501288      1.68010098868816      0.49917971972263
  H   2.53606763376943      2.90249176870792      0.22941372742815
