28
Coordinates from ORCA-job ./opt_b97-3c_parallel
  N   -4.45474281481439     -2.56218025639641     -0.00597447655723
  C   -3.45244672310851     -1.97007100821734     -0.00490496131901
  C   -2.26762575772622     -1.20388691683320     -0.00352500614481
  C   -1.07595103737303     -1.93503036801115     -0.00578850938491
  N   0.19196792337814     -1.60480179289060     -0.00544780861410
  C   0.72844066716339     -0.35211865373146     -0.00265933575369
  C   0.05154480682080      0.95098808537599      0.00057867172182
  N   0.74443003000522      2.09924153803538      0.00289282534571
  C   2.08152667844170      2.11239547939742      0.00245000490747
  C   2.82203095107693      0.95682428201018     -0.00032847571345
  C   4.21513091962574      0.65463746623959     -0.00152194163947
  C   4.38395806272611     -0.71678730920723     -0.00473475999471
  C   3.09908233037818     -1.32825481957095     -0.00567013010327
  N   2.78798536432909     -2.61966470648999     -0.00854895519465
  C   2.11118858618805     -0.28015811126641     -0.00288371461131
  C   -1.36028908767031      1.15221455636860      0.00174034565639
  C   -1.77210630954172      2.50705829726367      0.00518147693661
  N   -2.28880113024103      3.54953102113148      0.00793141076881
  C   -2.42264853840761      0.21740317699323      0.00000441913097
  N   -3.68029026956337      0.68880071678813      0.00177173996403
  H   -1.23500879910673     -3.01005659970432     -0.00836048856515
  H   2.54328614623949      3.09340944612239      0.00443176673724
  H   5.01098975698067      1.38327472204033     -0.00015714115021
  H   5.32350012566948     -1.24605477087462     -0.00629515896420
  H   1.79317154001993     -2.83481989150324     -0.00881239175068
  H   3.48732786715586     -3.34021051533947     -0.01064671785183
  H   -3.85844813337461      1.67871554654783      0.00417225090782
  H   -4.46506485077128      0.06145085992219      0.00054838443580
