32
Coordinates from ORCA-job ./opt_b97-3c_parallel
  N   2.77050581537441     -3.35419898828008      0.46818043642068
  C   2.05005549794135     -2.45598892046597      0.32144689343943
  C   1.11595264454483     -1.40515844804399      0.14295681571176
  C   -0.24289286373400     -1.73799235614261      0.09778586598756
  C   -1.26070633923206     -0.79226403327885     -0.03141639588736
  C   -2.59988642711634     -1.28395314376927     -0.23232334487708
  N   -2.72150097831180     -2.62029798576280     -0.51235707882949
  C   -3.81404055626167     -0.60777921003550     -0.12596819792325
  C   -4.09851711933167      0.72481969202021      0.14456977497364
  N   -5.41767927042460      1.08256574389207      0.23978489685358
  C   -3.15551050564560      1.76682721744250      0.22953571801359
  C   -1.79940091731551      1.69129044765224      0.09654057743798
  C   -0.90200124436330      0.61439157580053     -0.03902295139358
  C   0.47544594729634      0.94962161344570     -0.09310876747736
  C   1.12699755817480      2.18615276446833     -0.19571498237718
  C   2.51118134504427      1.96003305849638     -0.17042217978683
  N   3.49211976548881      2.89865290663145     -0.21069885316402
  C   2.75984375988416      0.55837128292691     -0.03819172314892
  C   4.04708191949030      0.02092887472848     -0.01270802740199
  N   5.16201888673007     -0.31798953694753     -0.01244149418551
  C   1.50770003825860     -0.07737785965679      0.00287454083299
  H   -0.48279885091509     -2.77871175188443      0.24108968844462
  H   -1.95780458542753     -3.07431924194260     -0.97902747925016
  H   -3.62600073848067     -2.95322688161937     -0.79267355660910
  H   -4.68921828971412     -1.22957221118987     -0.28519156403947
  H   -6.09385045193058      0.36905186318935      0.44452114894574
  H   -5.63352487174706      1.98236249701370      0.62894773605411
  H   -3.56253512737669      2.75837598621584      0.38989780074075
  H   -1.30934820328556      2.65233043725578      0.16855224903245
  H   0.67563533513684      3.15879101658037     -0.30744251434888
  H   4.42633779898670      2.58057027538077     -0.40810834682434
  H   3.26681607016510      3.80349333838495     -0.58210590856633
