34
Coordinates from ORCA-job ./opt_b97-3c_parallel
  N   -5.22092377471973     -0.73912292968517     -1.24185577230139
  C   -4.15604782371903     -0.48407921378492     -0.83989790973125
  C   -2.88227981218463     -0.16133612483464     -0.34457497278918
  C   -2.59324297364237      1.21813475799680     -0.16140162877467
  N   -3.62059393750395      2.08751757506661     -0.35015601264176
  C   -1.37553370845248      1.78884569589308      0.21076796480451
  C   -0.08471959599557      1.27033383661256      0.24629471171001
  C   0.99970584457573      2.21076987718555      0.36163330490975
  C   0.72406643058865      3.57974900608234      0.56736445132856
  N   0.50151299827606      4.70984841985642      0.72779370151355
  C   2.33060438771140      1.83229543035164      0.21868665080977
  C   2.61947143150345      0.51506081646325     -0.02989482509458
  C   3.82062675185320     -0.16760933916370     -0.38581606806204
  N   5.04725405480125      0.35466467811157     -0.50553184036455
  N   3.60387321220352     -1.46813505323490     -0.65246054216662
  C   2.28961020070341     -1.69116610595752     -0.44957618535089
  N   1.79779126133063     -2.90017909749195     -0.72809862327517
  C   1.58342227050753     -0.47191184820457     -0.05348093499046
  C   0.25010104354167     -0.14341265379147      0.18452518811132
  C   -0.72403515566761     -1.16559322599932      0.50550124612934
  C   -0.25614473621705     -2.27820057632500      1.20866126134551
  N   0.09919834339335     -3.24807227517985      1.75799744657239
  C   -2.09321640246333     -1.23319807748691      0.14231502743084
  N   -2.70693820305426     -2.43324407563046      0.24516828248468
  H   -3.42708281917000      3.06759198388349     -0.43638152804386
  H   -4.50162087577084      1.76721065683986     -0.71091000554950
  H   -1.43016682252129      2.86132714451530      0.34198215107550
  H   3.09753424453733      2.59354050544128      0.26819619948085
  H   5.81669113312095     -0.26947597722696     -0.67095962741042
  H   5.25431473842253      1.27212817389991     -0.15925936404511
  H   2.49063300346191     -3.59166669719367     -0.96677117256106
  H   0.99312213269365     -3.24549457110327     -0.22860313655925
  H   -3.70649463148911     -2.49987312395494      0.17454461240973
  H   -2.21774774615263     -3.22533671954969      0.62109636549786
