33
Coordinates from ORCA-job ./opt_b97-3c_parallel
  N   5.56041346717168      1.25306407508620     -0.21456143750006
  C   4.47964802092287      0.81833319127401     -0.16467544677590
  C   3.18977123268187      0.29653534128224     -0.10127123988350
  C   2.85003138699105     -1.07883501602689     -0.02247754451008
  N   3.73949598882268     -2.09226399667356     -0.05671722112701
  C   1.43410089374610     -1.18404939684798      0.03120841117828
  C   0.58915574531934     -2.26072678098008      0.10726160462036
  C   -0.78990879684598     -2.04432668941814      0.13153534278436
  C   -1.62313611838639     -3.18104384799779      0.19051329081677
  N   -2.31135969266469     -4.11835167284436      0.23625386392612
  C   -1.38671980256850     -0.73198103529279      0.06934845516754
  C   -2.77101685577127     -0.66009382097334      0.01322895651070
  C   -3.63862038783005      0.44067930249215     -0.08506886160419
  N   -4.97559976320551      0.13478315134503     -0.13295585219634
  C   -3.29512884117937      1.78562732455394     -0.08270999051811
  C   -2.00812618795284      2.31760802816959      0.05703052473438
  N   -1.93627407713068      3.69619215308405      0.11787437010777
  N   -0.81704460611304      1.73716133376430      0.09032402307488
  C   -0.48220812115211      0.42334445265788      0.04582530586795
  C   0.88340654528530      0.14461235307370     -0.00129340564747
  C   1.98557661058643      1.05188463880160     -0.08148147969933
  N   1.87708364817737      2.37727674114204     -0.11979783478677
  H   3.44787308198629     -3.00983688939727      0.22531305221390
  H   4.71291840500808     -1.88361561170660      0.08245852088823
  H   0.95141437861440     -3.27982656695285      0.13766762675200
  H   -3.27651181255204     -1.61679563192349      0.02991085164922
  H   -5.23125157513154     -0.80319993054878     -0.38480508832618
  H   -5.60870922220571      0.83989153567854     -0.46460916855164
  H   -4.10787169349686      2.49876745126659     -0.14768129636984
  H   -2.75771736353620      4.18090478283080      0.43435794554600
  H   -1.08209314184430      4.04744311410640      0.51508867967205
  H   0.92609204069894      2.72964287583133     -0.13571053054427
  H   2.67716745145562      2.96676641804380     -0.26597403867133
