30
Coordinates from ORCA-job ./opt_b97-3c_parallel
  N   -4.58867466471747      1.60942694280555     -0.76938492504671
  C   -3.53645744736837      1.18399283946758     -0.50882665972175
  C   -2.27233983440775      0.65157340337508     -0.18746753344373
  C   -2.19823911915705     -0.75667269806916     -0.16962209133566
  N   -3.31418524263798     -1.44294463370967     -0.47986655682010
  C   -1.04718896823050     -1.53265389888455      0.17615718659601
  C   -1.30237229997481     -2.92210611351291      0.33173066690462
  N   -1.70554912538190     -4.00941310366081      0.41441770275877
  C   0.30358549447135     -1.17169723733376      0.26817615422055
  N   1.09593979817937     -2.24269854204261      0.50873137370215
  C   2.40900327821165     -2.13756147299451      0.40717045586934
  C   3.03076475273022     -0.96586514204199      0.01121898887856
  C   4.36751340115871     -0.63879050903364     -0.25822457605644
  C   4.41533001232855      0.72365249246666     -0.61336115539475
  C   3.13725047186487      1.25946455958576     -0.54569044080603
  C   2.23323595848458      0.22066508027140     -0.15683237454177
  C   0.85888122557132      0.18209873727821      0.08777477917570
  C   0.11026916717851      1.37158942637897      0.31558768403518
  C   0.83328678453399      2.52881627172922      0.68170727081625
  N   1.30850043093409      3.53746557107447      1.01547386889978
  C   -1.28564983275185      1.60143999859927      0.20467611504618
  N   -1.73039790197931      2.85414588705665      0.43243999966955
  H   -3.32683320323080     -2.44663585357053     -0.42230485497060
  H   -4.18727018590832     -0.97081562806616     -0.63393755169090
  H   2.97685874371378     -3.03630820418318      0.62459336660731
  H   5.20674376793638     -1.31511027371974     -0.20756475774966
  H   5.30257057449813      1.26621256446037     -0.89840303590714
  H   2.88199658969738      2.27671696427897     -0.78371160620971
  H   -1.08815374782631      3.60654240023867      0.60850068054755
  H   -2.70569309771993      3.07974166165882      0.35963426216729
