27
Coordinates from ORCA-job ./opt_b97-3c_parallel
  N   3.53950316520127     -1.84587410051090     -0.01831162434435
  C   2.73571021890538     -0.72505744918163      0.00179646619979
  C   3.39276685204758      0.52043781149928      0.08977127648773
  C   2.78941028874226      1.75437093130613      0.09970639442995
  C   1.44243461646682      2.08360912543196      0.05504594357104
  C   0.30715425550714      1.26861619781919      0.01554770567478
  C   -0.93813888202340      1.90165283678305     -0.01365614385817
  C   -2.15568467674084      1.22013354889183     -0.00873724334428
  N   -3.33167015467063      1.91484529607633      0.00539902782224
  C   -2.13897555879143     -0.18388955659870      0.04161336158805
  C   -3.15561902096479     -1.14066437705499      0.06172163777624
  C   -2.54876065758924     -2.41870239689393      0.08203895530616
  C   -1.17034356127758     -2.26928375421057      0.07132480817424
  C   -0.87564619903339     -0.88060131375565      0.04882254571286
  C   0.36039140045982     -0.22295569370917      0.02334487692361
  N   1.44532415401013     -1.00130428923057     -0.01752370810771
  H   3.06076533126144     -2.68867515488770     -0.28657045407502
  H   4.47258593288383     -1.75130572229464     -0.37814319054534
  H   4.47441038058753      0.49830429613291      0.14868931308102
  H   3.46472597920875      2.60088484101336      0.15162749179219
  H   1.23422524221438      3.14742517711185      0.06522384197462
  H   -0.95259166485351      2.98509703815308     -0.02801800813176
  H   -3.31077377565528      2.87372894549705     -0.29339010244360
  H   -4.16314078849509      1.41807878153239     -0.25892515248369
  H   -4.22050228404513     -0.95837783370211      0.07748470644363
  H   -3.08103690084323     -3.35760214739030      0.10616113305767
  H   -0.43478679391283     -3.05578893732755      0.08237149461811
