21
Coordinates from ORCA-job ./opt_b97-3c_parallel
  N   0.56690877143853     -2.52703843239034     -0.14113988098999
  C   1.12767675767121     -1.33420416064645     -0.03366446338713
  N   2.47067192586856     -1.35476538934152      0.06498515731808
  C   3.28212546371998     -0.32529678729247      0.11170757060167
  N   3.13717767834990      1.00078466849431     -0.02213204772668
  C   1.97995716851285      1.62337807519444     -0.08888993696154
  C   0.65064681581225      1.17161292871078     -0.01287617537493
  C   -0.34077772479327      2.19660483255617     -0.00450387883625
  N   -1.64590581619940      2.02399902984125      0.03850035647128
  C   -2.05174916149615      0.74641745048474      0.05873747667960
  N   -3.31488548932310      0.29480786674108      0.06759083146657
  C   -3.15680868208854     -1.04632695276171      0.04661751383177
  N   -1.89588491130288     -1.52390527647703      0.02137410078524
  C   -1.14609326848155     -0.38734069849856      0.03539267436809
  C   0.22480115597572     -0.19680663880546      0.01408611250441
  H   -0.46211249413212     -2.60632926393614     -0.13809211046733
  H   1.17308014803954     -3.33069688161028     -0.12502160744065
  H   4.31763027148481     -0.61394492399723      0.26768745355930
  H   2.08012753955412      2.70018723212158     -0.20591350641430
  H   0.00363715083956      3.22476569638035     -0.03018424905984
  H   -4.00594106944999     -1.71342481356747      0.04596864367263
