27
Coordinates from ORCA-job ./opt_b97-3c_parallel
  N   -5.09028995781782     -0.67850848589306     -0.28314671809323
  C   -4.03988805682319     -0.18894800180250     -0.23127058884839
  C   -2.77488793587089      0.45607326276244     -0.17080935098043
  C   -2.77864392641362      1.83889672188888     -0.46909627232528
  N   -1.85217613456723      2.71763655889741     -0.22669864291955
  C   -0.61286105816074      2.52690349006131      0.22324434284836
  N   -0.09172326461128      3.59454298542329      0.84195799855496
  C   0.23463477113510      1.37769453672007      0.00717867541021
  C   1.59905011475906      1.60440630517151     -0.13857141201612
  C   2.53052538207594      0.56181713411547     -0.21111529583900
  C   3.90150092833784      0.86561125916110     -0.39952572536011
  N   5.00987615761559      1.17139707206683     -0.55004173933992
  C   2.08501520828409     -0.74728477701690     -0.07029061724375
  N   2.82812553470380     -1.87680383225696     -0.07735849195287
  C   1.94889425860850     -2.87026356125645      0.07221115704836
  C   0.60317426508775     -2.42336899903888      0.17344535506820
  C   -0.51352224869887     -3.24703580709833      0.34194907398502
  N   -1.44702893357102     -3.92802372400851      0.48332814149512
  C   0.66683231782323     -1.01553777211678      0.08778032416595
  C   -0.28863543612913      0.02882960307131      0.06556685227090
  C   -1.65386832965471     -0.31433448819914      0.08826648392403
  H   -3.68492500855119      2.23908567688782     -0.91105898802945
  H   0.76624853550482      3.53764552396792      1.35821823205071
  H   -0.65725461625888      4.42181045909771      0.92783912700949
  H   1.96507473433106      2.61475654793079     -0.23823023594937
  H   2.26731061680154     -3.90110640922988      0.11203663185143
  H   -1.86012260594083     -1.36478017560527      0.23248702221408
