31
Coordinates from ORCA-job ./opt_b97-3c_parallel
  N   -4.82308954849998      2.03157900874951      0.06891085074098
  C   -3.93228435178211      1.28460159233374      0.04879934866631
  C   -2.85959191133424      0.38355096982981      0.02935177008791
  C   -2.93624447886040     -1.00839249254844     -0.11258803073298
  C   -1.64529632752314     -1.56491864566803     -0.11625923890659
  C   -1.37946918115374     -2.90640941913347     -0.40295395326123
  N   -1.12817780829416     -4.02407082818025     -0.62073527826225
  C   -0.70384760587669     -0.48319131890136      0.03045736699734
  C   -1.48380297790040      0.72275670699980      0.07512177871189
  N   -0.94488084368767      1.93961789292578      0.06701570813447
  C   0.36437176085687      2.04574775823614      0.01342410543733
  N   0.83193996883761      3.37789905831181     -0.11170294199792
  C   1.27289999107826      0.93487073469349      0.08411362488764
  C   2.70050162705297      1.18813389647404      0.10776056502657
  N   3.14572497236483      2.34440840937937      0.63680680139238
  C   3.66980931246374      0.35006948359455     -0.46590485386244
  C   3.61023020668293     -1.00899416756916     -0.67929609129066
  C   2.66198245414309     -1.90927097703967     -0.23472582614092
  C   1.45095827074813     -1.59992233261407      0.37712904464056
  N   0.89037313391500     -2.50821174370891      1.18734931173137
  C   0.69153811563586     -0.37536223431737      0.13074898033372
  H   -3.84522611390457     -1.57223669731415     -0.24002214184784
  H   0.01745650427989      3.97715207800380     -0.14217328296805
  H   1.36468920820857      3.51811514932909     -0.96158553561719
  H   4.11804627929956      2.58037113359753      0.55031440236693
  H   2.48277256649219      3.09086617975858      0.82214414122707
  H   4.61897514179183      0.82413308908062     -0.68664448106980
  H   4.48945286483381     -1.44622983151311     -1.13668992564535
  H   2.92972834692711     -2.95831533523398     -0.26848201303448
  H   1.21364381276093     -3.46041632461675      1.17298244912669
  H   -0.05546251605584     -2.38086806203881      1.50136739222857
