23
Coordinates from ORCA-job ./opt_b97-3c_parallel
  N   5.25951748679755     -1.13219686427955      0.12408128095841
  C   4.17552181274011     -0.71598606111576      0.09160528278422
  C   2.86226019595341     -0.21171380418555      0.05167963107661
  C   2.51280937332523      1.16050826016057     -0.01319962420587
  C   1.12244346263574      1.22708038722292     -0.02898132199469
  C   0.22343303667030      2.28327284855635     -0.10300502472235
  N   -1.09071566647916      2.13568466613283     -0.07367720943566
  C   -1.63956168985455      0.90153904378713      0.00215733625719
  N   -2.96867093220363      0.95443391966255      0.11064234407754
  C   -3.87188856052398     -0.00879399082692      0.14199267104320
  C   -3.76107757077828     -1.38526670309337      0.00201041144763
  C   -2.58387380144440     -2.11115584664203     -0.10991856667694
  C   -1.29194823323093     -1.63381204044769     -0.09740408562950
  C   -0.79389482219338     -0.32394231228010     -0.00947692804870
  C   0.59394574069780     -0.12105646414142      0.02204410436498
  C   1.69502947193210     -0.99523250470121      0.06978288943349
  H   3.20697188978444      1.98363940699272     -0.04399919638792
  H   0.58143992524773      3.30591179288557     -0.17784262029151
  H   -4.88350568530242      0.36572170709759      0.27762575333583
  H   -4.69099614144204     -1.94031249346866      0.00327044273661
  H   -2.68701154730440     -3.18547033776365     -0.20155251802900
  H   -0.52824459071896     -2.39717827151818     -0.17159664056252
  H   1.68807421109176     -2.07096050443410      0.12497384976894
