30
Coordinates from ORCA-job ./opt_b97-3c_parallel
  N   4.72161592131101      2.11573963371983      0.01295437871457
  C   3.89444076064240      1.29752301713075      0.03547310583925
  C   2.86057986575439      0.35369874415201      0.05499731411703
  C   2.97350443665728     -1.03943994708642      0.13103424972545
  C   1.69134036736095     -1.61694085714328      0.10311478285020
  C   1.47816736055708     -2.99748634979048      0.19645643675822
  N   1.30936434926686     -4.14768006355903      0.26989445643865
  C   0.72668185233267     -0.56041122380547      0.01975645828192
  C   1.47689798588487      0.66173809037953     -0.01027517939212
  C   0.82679557472876      1.86649645145038     -0.17488698750287
  C   -0.55497055362317      1.92957388345550     -0.19648839795054
  N   -1.15532234794037      3.20927658296667     -0.35591492804047
  C   -1.35211486343690      0.76001818164516     -0.03837344756115
  C   -2.74854398636539      0.89977378207432      0.31299621400293
  N   -3.13775565123718      2.04258721311884      0.91828410617634
  C   -3.79191797195692     -0.03184301060689      0.10844766252477
  C   -3.75176940401575     -1.34756999775765     -0.25450469442875
  C   -2.62494177430151     -2.15177603844611     -0.42176382854927
  C   -1.31568843298816     -1.78908604771511     -0.27120798548426
  C   -0.68674685194865     -0.53639624015677     -0.07041215670621
  H   3.89457258117161     -1.59229039403796      0.21021380545119
  H   1.40654202921528      2.77446889958584     -0.29655290677664
  H   -1.76240434967166      3.24845846080162     -1.16404831907684
  H   -0.45370505299948      3.92752887343912     -0.45388065260275
  H   -2.52300653773896      2.85113705531596      0.87395027000767
  H   -4.11701683808052      2.20394136011926      1.07013072252535
  H   -4.78286866478281      0.36915204248758      0.29183937032641
  H   -4.71253903836147     -1.83259713753457     -0.37746907507179
  H   -2.80479907455592     -3.19315498306746     -0.65466993385392
  H   -0.62596204757811     -2.61177274343481     -0.37031381024256
