27
Coordinates from ORCA-job ./opt_b97-3c_parallel
  N   2.49258987643183     -3.24927608731108     -0.47038082866170
  C   2.33702157036763     -2.10597001660819     -0.29687189551197
  C   2.21347033733646     -0.73687462804857     -0.07936912467389
  C   3.32258087606237      0.15034067161484      0.16182589214178
  N   4.61452340760170     -0.21556143004980      0.14551561894289
  N   2.95448831174757      1.42057800724314      0.38093317228990
  C   1.60908634401383      1.42039510314129      0.28893917001091
  N   0.84161204818160      2.48588865239071      0.46316308632202
  C   -0.47228865810747      2.30985772357995      0.29875952930807
  C   -1.10918980772039      1.10152241500403      0.01177835080991
  C   -2.52197116640177      1.10259791346019     -0.27765435437422
  N   -3.07252285205799      2.24822740619690     -0.72171437221051
  N   -3.39629236216712      0.12665336888991     -0.08782311422726
  C   -3.09672317347830     -1.14257779333672      0.15885519795826
  N   -4.05267674708500     -1.86366835077451      0.76545287560941
  N   -2.02415476104063     -1.87756011827263     -0.22043075432888
  C   -0.82422292547649     -1.38655921659504     -0.37405928487870
  C   -0.30967314577185     -0.09174800076531     -0.11811773250871
  C   1.07851247841142      0.08359270770589     -0.01277192999921
  H   5.29301260990865      0.44550203387006      0.47807639594817
  H   4.86020550224079     -1.18883666171732      0.15246936758876
  H   -1.07204543498915      3.19774677657989      0.46400335206489
  H   -4.06043510866938      2.25680989099728     -0.90222258864654
  H   -2.50797296466176      2.99081103905131     -1.08665457516132
  H   -3.94641811876692     -2.85979425349290      0.82180878191781
  H   -4.93256103950037     -1.43718530519129      0.98900055069684
  H   -0.09661109590820     -2.12282561116255     -0.69759010162780
