26
Coordinates from ORCA-job ./opt_b97-3c_parallel
  N   4.30615823197455      2.29860920851923     -0.03821687504942
  C   3.32043899271248      1.68764795321040     -0.03011534503620
  C   2.08774058636587      0.98655211166560     -0.02857623635131
  C   0.90162042266404      1.67665301001756     -0.20913793744038
  C   -0.35458584291441      1.03647908171041     -0.20510543537278
  C   -1.46880348488027      1.90437188812679     -0.31896003936952
  N   -2.74215780652245      1.73464694252479     -0.08925694654188
  C   -3.28678173883831      0.53523843317634      0.21663078847348
  N   -4.45276579968468      0.62047281216870      0.87779257334085
  N   -2.90781355559220     -0.68594739932686     -0.13649166753641
  C   -1.67522110417420     -1.07850576415789     -0.40412967573934
  N   -1.58022547721695     -2.28494093546905     -0.97462148831986
  C   -0.42668833602036     -0.39286443024210     -0.09996056385688
  C   0.75364173733068     -1.10559172312858      0.10723515033888
  C   1.10357941146607     -2.46584170004174      0.29868976694376
  C   2.48243875260539     -2.47430758692299      0.46168922016015
  N   3.06021489276909     -1.24110811649570      0.36290514389811
  C   2.04249248233369     -0.40496617537984      0.16358186360353
  H   0.93481797081053      2.74917994099301     -0.33125095568519
  H   -1.21475640343383      2.92830694578136     -0.58108855113799
  H   -4.86564650133585      1.52395876706702      1.01812007729291
  H   -4.99248304213730     -0.20877108661075      1.04250694837841
  H   -2.42327578009962     -2.78048657765680     -1.20285001685411
  H   -0.68963771376778     -2.64623891870782     -1.26814386200931
  H   0.45099624203374     -3.31489375476047      0.41512338054099
  H   3.09887831215195     -3.33955230056078      0.66006458762966
