27
Coordinates from ORCA-job ./opt_b97-3c_parallel
  N   5.36537171944195      0.85938824065760     -0.01033746458725
  C   4.21071915532560      0.71078809549404     -0.00742432395734
  C   2.82330927569658      0.45690113749481     -0.00324182352040
  C   1.96751894641475      1.54881691154866     -0.00615703891306
  C   0.58852614163320      1.60527474600907     -0.00308857793833
  C   -0.36652449655149      0.58821451444865      0.00159433687956
  C   -0.03209962885998     -0.86092689112905      0.00034870585415
  C   -1.07409411083262     -1.78704575215666     -0.00441929154538
  C   -2.42957319473562     -1.44242225463237     -0.00483952409080
  N   -3.37404260685282     -2.40367861902599     -0.00785427561893
  C   -2.77104049536543     -0.07455215347165      0.00036238353837
  C   -3.96941887123240      0.63248598327241      0.00261207536759
  N   -3.75295895297088      1.98180229778077      0.00764819001725
  C   -2.42915735270340      2.15330807881493      0.00828366167498
  C   -1.73161804777157      0.91223918734224      0.00396146494950
  N   1.18863207685411     -1.41851363999344      0.00482455101237
  C   2.40654499767463     -0.92035274055481      0.00627195194462
  N   3.38520230696110     -1.85662477851984      0.01738590618316
  H   2.46518513355756      2.51021794784760     -0.01182788461313
  H   0.18649147809725      2.60884594883089     -0.00569151578076
  H   -0.78690010053706     -2.82917340393905     -0.00563129185730
  H   -4.34882450121075     -2.17388693434965     -0.01361218419639
  H   -3.12519953015223     -3.37457734610882     -0.01712092372709
  H   -4.98090368496662      0.25191579673564      0.00114332958036
  H   -2.01089770054014      3.14887880099237      0.01260236568323
  H   4.35996429882674     -1.61963759573237      0.01476496803139
  H   3.10738420579955     -2.82001771775604      0.01798934022960
