35
Coordinates from ORCA-job ./opt_b97-3c_parallel
  N   -5.95750992054688      0.61101166975364      0.81014927654312
  C   -4.85313186538372      0.33959476931000      0.55320016319338
  C   -3.53033477198887      0.02183450463590      0.25319256025406
  C   -3.03488529914020     -1.25840982834429     -0.05575822893694
  N   -3.77587941505360     -2.37080721300834     -0.21438297671134
  C   -1.61394005973037     -1.15053697258568     -0.19886378462353
  C   -0.65771319533956     -2.08465216638396     -0.46767668294658
  C   0.69924053276430     -1.70842862651620     -0.43341948217303
  C   1.63301894346935     -2.69738388972488     -0.81869133171820
  N   2.33182262932902     -3.53624253744460     -1.21730485032226
  C   1.11495018380770     -0.38549987531026     -0.12394636629755
  C   2.45867209864633     -0.16726154826056      0.29557396282696
  C   3.11347282477218     -1.24530508282905      0.92820433883267
  N   3.71830552988511     -2.03567512514829      1.53392042401905
  C   3.25473004826030      1.01620256562352      0.20037637787959
  N   4.57043348272068      0.89784095727116      0.52651213267299
  C   2.84745705387912      2.26674498015491     -0.25558027033284
  C   1.55765591146569      2.72003260847502     -0.50963659558780
  N   1.43563635226704      4.04966375349369     -0.86793870280455
  C   0.35617928348367      2.01713569908238     -0.37160650670805
  C   0.09898208505776      0.66377573073818     -0.14721009475485
  C   -1.24039836209575      0.22602574650732     -0.00321729653047
  C   -2.42525854179845      0.93263767170894      0.30236426152592
  N   -2.56784450959361      2.24555451652605      0.60626261845750
  H   -3.32842020101436     -3.26861083733602     -0.20961965455360
  H   -4.73959690911255     -2.35943305286237      0.07102735838554
  H   -0.89707840498812     -3.11340531297211     -0.70043029055219
  H   4.90837086128673      0.04971540685546      0.94749955776796
  H   5.10577140239637      1.72698160972200      0.70085956905353
  H   3.63860379425799      2.99840523922129     -0.37080153589709
  H   0.59383268439330      4.30497692943534     -1.35462078377810
  H   2.25428256002156      4.48626503742354     -1.25450470870857
  H   -0.51868761091790      2.60454180763349     -0.61372300861100
  H   -3.43894279646219      2.51547581798777      1.03535377540888
  H   -1.75938234549769      2.72077019486756      0.97440229062664
