29
Coordinates from ORCA-job ./opt_b97-3c_parallel
  N   4.89912457504064     -2.00211125894811     -0.50067952075795
  C   3.92103006915032     -1.39055346692925     -0.34309423535056
  C   2.80608219022058     -0.57407508186305     -0.14899276006283
  C   2.87629393223242      0.82931693633471      0.03297887599867
  N   4.00151746263198      1.55408496878614      0.07473422413689
  C   1.55626786206277      1.35487410674957      0.18951764545810
  C   1.31255539152297      2.71760466202241      0.34708081457180
  N   1.16746638748480      3.86830786800538      0.47244108045867
  C   0.65109227463115      0.27281957221594      0.11930461409819
  C   1.44299680913732     -0.93530570927004     -0.10732984046844
  N   0.91711441409116     -2.14443584404408     -0.25604732408596
  C   -0.40602406814481     -2.24462904090572     -0.14259239524639
  C   -1.28413719781256     -1.17888928793005      0.07710780898398
  C   -2.68008206631645     -1.45791828652771      0.30168258575180
  N   -3.01383044197406     -2.67271348210423      0.77287602191909
  N   -3.72017667375216     -0.68790478074291      0.01204037781101
  C   -3.66295047553696      0.60836887168474     -0.24792528285247
  N   -4.68045144928441      1.12387548643991     -0.95202703450155
  N   -2.79117872159506      1.54511533745765      0.20998497412631
  C   -1.52936042992024      1.31513424759632      0.42357157211184
  C   -0.74360051156955      0.15207196516926      0.18635555130581
  H   3.95956200574121      2.55675251182018      0.10735192224424
  H   4.88333515278210      1.12657913670232     -0.14442971847575
  H   -0.80355844221066     -3.24127733083687     -0.29499150191540
  H   -2.33320433400015     -3.27890974229223      1.18840378612343
  H   -3.98849905846826     -2.88426530090168      0.89093333264296
  H   -5.43022688838716      0.53003419100871     -1.25467968792142
  H   -4.76663781681799      2.12090543538189     -1.02576725424645
  H   -0.99067490933892      2.17788308852198      0.79859733004278
