29
Coordinates from ORCA-job ./opt_b97-3c_parallel
  N   4.91557241126240      1.99078080034741      0.14229305851090
  C   3.98178281700220      1.29516320747224      0.10861680364337
  C   2.81736714718077      0.52400726039442      0.07001084967768
  C   2.70279662885518     -0.88151465551910      0.03448236085198
  C   1.35004211966283     -1.22384574776760      0.01555182216141
  C   0.68494578313114     -2.45615804952342     -0.02010021027042
  N   1.35514019592150     -3.64325054473034     -0.01418982984517
  C   -0.71461977246475     -2.44266030909200      0.00441451888776
  C   -1.50136976978919     -1.29452231360538      0.04985801754561
  N   -2.82867418573769     -1.53734568343843      0.12363763635529
  C   -3.79304123040383     -0.63935539780683      0.16478696251103
  C   -3.79663029259086      0.74194953593472      0.10779685420422
  C   -2.67409242446497      1.57695348128369     -0.00162573881076
  N   -2.90734236141436      2.92743034761500     -0.06266997634382
  N   -1.38282334672153      1.25819565197499     -0.01065410033490
  C   -0.82105833133328      0.03339506161170      0.03003484850527
  C   0.57186942944208     -0.01264521568379      0.03838376396750
  C   1.50483437421340      1.07403080897761      0.06757408057140
  N   1.17996234351501      2.36856823054520      0.07857888356188
  H   3.54780298028719     -1.55172724826042      0.03867774254732
  H   0.84626248802668     -4.46895031992924     -0.27431460935902
  H   2.32130614613915     -3.64545702849034     -0.28562238671965
  H   -1.25706385209948     -3.37827343233240      0.01345808700040
  H   -4.78129917854785     -1.08815326436612      0.24706735749527
  H   -4.76776698843914      1.22036239128314      0.14652846164609
  H   -2.14883630526498      3.48647209293779     -0.41126488570808
  H   -3.82283939812679      3.23548325256065     -0.33644435563921
  H   0.19177685218835      2.57125762662785      0.15140058204874
  H   1.88076675237086      3.07523904097906      0.21720303223788
