27
Coordinates from ORCA-job ./opt_b97-3c_parallel
  N   5.75581337253629     -1.48829832367129      0.88206272400406
  C   4.76940008892707     -0.92206119524024      0.64808516886061
  C   3.57899471220344     -0.22728063779183      0.36520172077641
  C   3.49930984341431      1.10842810681489     -0.09650039721950
  C   2.14571813230500      1.43108680957850     -0.21547344508709
  C   1.48867224052537      2.56665754444841     -0.67596919657589
  N   0.17931270264475      2.72254447460502     -0.57054534862049
  C   -0.57121482253543      1.71437096248181     -0.09558900391777
  N   -1.76205165635816      2.08075286792634      0.34972068745281
  C   -2.81975674478809      1.36658885158570      0.63948288596769
  C   -3.15439786341032      0.06466245281593      0.26837738622024
  C   -4.50587180235486     -0.31497516177114      0.43002072934990
  N   -5.60690328559797     -0.67132868221150      0.53974336850567
  C   -2.25802505148556     -0.93210223185873     -0.21523339353531
  N   -2.79189202336286     -2.09280710672337     -0.62517584021004
  C   -0.83444567245323     -0.80912785249864     -0.19241597225761
  C   -0.17245509532184     -2.02437557144329     -0.48734461252576
  N   0.25802081716562     -3.06966978216046     -0.75859021922562
  C   -0.02902347111311      0.33272597925309      0.01835383321339
  C   1.36567363774740      0.27251796374784      0.15030259897520
  C   2.28066553459763     -0.74729234958071      0.49794145992862
  H   4.33946055825482      1.74719559336567     -0.31407810888997
  H   2.03827819790992      3.39750498841680     -1.10583675501751
  H   -3.59020589301111      1.90989808755707      1.17773592001452
  H   -3.78430035065365     -2.24522534530392     -0.57281874113878
  H   -2.21168448613044     -2.87778545270323     -0.86714561243282
  H   2.05705623824314     -1.74076013703627      0.84276599318494
