30
Coordinates from ORCA-job ./opt_b97-3c_parallel
  N   -6.09314864715122      1.48783208947937      0.17467305084678
  C   -5.03209254270144      1.01497399364028      0.10824676393293
  C   -3.74204608733079      0.44318880205059      0.03046539411983
  C   -3.63008358525140     -0.94362029808488      0.22393460078687
  C   -2.52097275093874     -1.74508505987099      0.16940174141231
  C   -1.13539769346695     -1.46921990975001      0.00836319720153
  C   -0.27832794263760     -2.58008562580005     -0.01619427665387
  C   1.10278471075397     -2.47185170297347     -0.07371731885778
  C   1.68074865116270     -1.22474699516276     -0.06381076563777
  C   3.03410761264250     -0.80915048414761     -0.03907327995134
  N   4.13365465669345     -1.59737183246631     -0.02526271891979
  C   3.04880079635835      0.60417478548050      0.06772316187362
  C   4.18863214506491      1.39979754722127      0.17954109102295
  N   5.13975173412164      2.06642357011285      0.27380133916557
  C   1.71075830763259      1.07711627128449      0.09384752894780
  N   1.38902785210028      2.38788706970779      0.21349306133768
  C   0.83493479126841     -0.04544537345288     -0.02455192341213
  C   -0.56029298734830     -0.13642247664778     -0.09752417954809
  C   -1.32977990801701      1.03830690586827     -0.35656048544756
  C   -2.67384941698661      1.29519475462313     -0.29426830797841
  H   -4.56293483915068     -1.45839144394280      0.41687088677922
  H   -2.73196990308441     -2.79801890664402      0.31211029521771
  H   -0.72407756332117     -3.56441139754107      0.01614033420673
  H   1.70281173570727     -3.37363631680731     -0.09446451770315
  H   5.02822194274919     -1.16575624792684     -0.18168663126601
  H   4.05455253574746     -2.54114481400009     -0.35721025765309
  H   2.12532956900341      3.00523720935063      0.51772478094756
  H   0.48214781496295      2.61320420895934      0.58724904221477
  H   -0.75099793744785      1.87373649731118     -0.72164152665744
  H   -2.95726567653504      2.31273163552959     -0.53457141262748
