28
Coordinates from ORCA-job ./opt_b97-3c_parallel
  N   4.91301534311618      0.69825685951670     -0.20561961324731
  C   3.75498053550694      0.78464506909095     -0.16747390659901
  C   2.36120378368267      0.94347455762160     -0.12578166293951
  C   1.69972482676079      2.18399425545620     -0.21641051354259
  C   0.31802387228257      1.99256110052673     -0.13470069460083
  C   -0.63094990803980      3.00854571065041     -0.28632784604015
  N   -1.44169019440960      3.83853395266321     -0.38536186340075
  C   0.07830553152314      0.58042289522447      0.00335266814207
  C   1.37703984870975     -0.05950206335333     -0.00909169722110
  C   1.45454263550027     -1.45813579650114      0.10967136753583
  C   2.69523715137432     -2.14636102789147      0.16097154165749
  N   3.67676198136429     -2.76132667636559      0.21186568544744
  C   0.29040379002257     -2.20250688460140      0.15681464905574
  C   -0.98981650513629     -1.61249803822077      0.10784933149737
  C   -2.08189871451482     -2.50966162081358      0.00671889547880
  C   -3.38675494798467     -2.27726255545556     -0.34031549556297
  C   -3.95264615544933     -1.01834839797982     -0.58739104532125
  N   -3.51989743265265      0.14447645376071     -0.18518219442927
  C   -2.37093541045356      0.43622401244795      0.41486044590978
  N   -2.41838201384938      1.41498962250515      1.31367867273241
  C   -1.08502787973991     -0.18082410379646      0.12020129070538
  H   2.18622471501890      3.13559005376062     -0.35047191854839
  H   0.36316831574399     -3.27878386217874      0.19914559097929
  H   -1.80585762230313     -3.55293376052949      0.10252352867629
  H   -4.01848852248639     -3.13633481087673     -0.52220239760302
  H   -4.89088690579705     -0.98724618352760     -1.13254772591524
  H   -3.24120588974502      1.99370614082745      1.35374060427180
  H   -1.57637683405259      1.78232992167727      1.71868333537487
