27
Coordinates from ORCA-job ./opt_b97-3c_parallel
  N   -3.35426609101221     -2.20383087086513     -0.35489315982237
  C   -2.90673298910095     -1.13112790043480     -0.25148881712333
  C   -2.34896276695577      0.13731978279674     -0.09454414124405
  C   -3.08330528263418      1.33913498653971     -0.15125360825475
  C   -2.22280521436758      2.43391382197880     -0.09389984030491
  C   -0.91087851027802      1.95081059311272     -0.02237697559322
  C   0.31300903780570      2.60982579248749      0.01030368399534
  C   1.50357644250918      1.91153657623834      0.04298485305164
  N   2.72418580907364      2.59738620442128      0.08264167773404
  C   1.49774962504896      0.48195277336979      0.06850241510001
  C   2.74593716684430     -0.16756885334766      0.20510564612981
  N   3.13674679889306     -1.37089822532522     -0.15988867586084
  C   2.29773390635972     -2.31503934709614     -0.58901834709271
  N   1.05549962517184     -2.52505030762247     -0.25141015631705
  C   0.24778932936467     -1.64696697816172      0.34543510286404
  N   -0.64357706599142     -2.15428151606825      1.19060854626345
  C   0.23207054435009     -0.21963365008215      0.06905872171821
  C   -0.95609609117596      0.49483354062120     -0.00671381213975
  H   -4.15692218869851      1.38044648459534     -0.24793608011326
  H   -2.51404981647947      3.47169187126312     -0.11743278457990
  H   0.33396270919082      3.69329047947214     -0.02417004385391
  H   2.60882161232109      3.59465863513568     -0.00055487411855
  H   3.40593098120362      2.28061155554616     -0.58850503662192
  H   3.54569462674898      0.44587417115634      0.60762462724331
  H   2.74506187869312     -3.07597390228665     -1.22048535869380
  H   -1.37788246753201     -1.57994961509754      1.56370333838955
  H   -0.79470432735266     -3.14919358724716      1.19143816094486
