30
Coordinates from ORCA-job ./opt_b97-3c_parallel
  N   -1.34203439040045     -4.17789335180482      0.35727270630618
  C   -0.69249258395237     -3.21466692783558      0.28845486476392
  C   0.08768306408174     -2.04309381114600      0.20250630957996
  C   1.48051381577467     -2.16915177026341      0.26306935653538
  C   2.27356998460236     -1.05942623300416      0.12383838551793
  C   3.67981632533219     -0.90793171896365      0.07092155542508
  C   3.96769800484084      0.42614859053748     -0.16144280520316
  C   2.75132678933640      1.14928466369335     -0.24926675681439
  N   2.66977597416547      2.49657912361208     -0.49724337821284
  C   1.67292644532443      0.24175647511124     -0.04379757257589
  C   0.28101212213534      0.43319067152838      0.04261120534099
  C   -0.23853328639486      1.71855049043092      0.20951181429137
  C   -1.55711132785845      2.19703567037769      0.22846811479642
  N   -1.71102616081759      3.53389243218649      0.51522697831577
  N   -2.70651953147073      1.59849884930749     -0.06596614553066
  C   -2.84586249021922      0.29649564246412     -0.29727189170282
  N   -4.10420848565612     -0.04620858324538     -0.70571964122351
  C   -1.93130279902387     -0.76346861068444     -0.15385646210040
  C   -0.55846102821917     -0.77638723659342      0.03905481275100
  H   1.91320133236141     -3.15238388405821      0.38993675258693
  H   4.39913152833075     -1.70601271184180      0.16920911119257
  H   4.94967253252968      0.85712415615684     -0.28615641544853
  H   1.83526217994201      2.80310898784805     -0.97362287494384
  H   3.50199941631976      2.90212208197833     -0.89454427384954
  H   0.49542206457306      2.47728949054984      0.43929025101938
  H   -2.65626336320355      3.81194216039016      0.71459991179759
  H   -1.00498543356152      3.98265954045737      1.07060587772016
  H   -4.39436576280095     -1.00565782079665     -0.66027282455785
  H   -4.81711698951182      0.64867891620798     -0.57226528364685
  H   -2.38303280555925     -1.74345404970069     -0.23948219992916
