28
Coordinates from ORCA-job ./opt_b97-3c_parallel
  N   3.88941895882319      2.58458291091862      0.04333121212979
  C   3.10087498065658      1.73288105791822     -0.00452389736052
  C   2.18206917306939      0.64943790557850     -0.06557104410033
  C   2.80277642613858     -0.56586782004348     -0.40210736535090
  C   2.31390976107280     -1.83784805892759     -0.41582797113499
  C   1.04074489210378     -2.29043491964415     -0.01485293951178
  N   0.91288739833765     -3.63804214485864      0.11423477648564
  C   -0.08983443976236     -1.46966782865152      0.21158543435775
  C   -1.19522792571267     -2.20147517166543      0.70698668771086
  N   -1.98510810291122     -2.93163473563516      1.15219022141484
  C   -0.27249240395744     -0.06012604776724      0.00475865197817
  C   0.81227605597663      0.93953362137676      0.12816372430420
  C   0.46320498379659      2.27909129737413      0.38612020848143
  C   -0.83877575849727      2.72771971497955      0.36947419014164
  C   -1.86146006885391      1.84642044995314      0.05654759448820
  C   -3.23645776814929      2.02997445772803     -0.12548045096428
  C   -3.80101560851096      0.78480142130351     -0.47684459111395
  C   -2.80695571120994     -0.17886120096555     -0.49338114784087
  C   -1.56249321324933      0.44628576452501     -0.15501840271343
  H   3.85014698398809     -0.47514446392215     -0.65848459364650
  H   3.01922468943720     -2.61277465215062     -0.68861403566320
  H   0.07392401274850     -4.02871875731625      0.50814826698101
  H   1.74169740279168     -4.19653644635656      0.19515110890255
  H   1.25727821626456      2.99074352298790      0.55029448153407
  H   -1.04807081128389      3.77299678623619      0.55909792735751
  H   -3.76505590982009      2.96615597351639     -0.03180025854710
  H   -4.83913840493355      0.61196250375643     -0.71305023999158
  H   -2.95313860895334     -1.20862607244771     -0.76775219422832
