29
Coordinates from ORCA-job ./opt_b97-3c_parallel
  N   3.94538538191871      1.42770451006606     -1.13460530560288
  C   3.16888420339285      0.70024781148098     -0.66790943353209
  C   2.25816753279430     -0.29505430194641     -0.21940106364372
  C   2.80083840040377     -1.58590076113208     -0.31087864017411
  C   2.22525707238289     -2.80113722998194     -0.03794735071193
  C   0.90399177980678     -3.03721468512879      0.32586356784846
  C   -0.16910412565764     -2.16591495210650      0.36402757854679
  C   -1.35267022833610     -2.77621487059977      0.86009796524734
  N   -2.27250499739313     -3.33959751589590      1.29304619217092
  C   -0.23421000403037     -0.75063031265055      0.04580076212865
  C   0.93887405338871      0.12299388524152      0.12357478661422
  C   0.70968771066619      1.49465432117154      0.42500073022391
  C   1.72971241529791      2.33048428115369      0.93571338033037
  N   2.47875239429361      3.06051058854986      1.44137945720199
  C   -0.56488162091980      2.06967412850843      0.31070260528125
  C   -1.62085631320730      1.29682874667907     -0.07892366989660
  C   -2.99052410590563      1.59597883591149     -0.31993667279200
  N   -3.55760618782849      2.81739175183838     -0.32696401354413
  C   -3.65166556588776      0.37249979477842     -0.61080592377873
  C   -2.74556918981472     -0.66252698625649     -0.52535064225475
  C   -1.45777059378087     -0.14018217643201     -0.19608544311118
  H   3.83889237670083     -1.61040304700483     -0.61497850325423
  H   2.87046831302401     -3.66711703337260     -0.09295856433916
  H   0.67088767335707     -4.05566738167288      0.60844731882817
  H   -0.66623611125431      3.12515465068791      0.52823077423767
  H   -3.05278965816509      3.61502742060947      0.01352661360735
  H   -4.55712619623750      2.90378841157034     -0.34447656098386
  H   -4.69562420004322      0.27672566816077     -0.86518294652532
  H   -2.98382773976633     -1.69373400762627     -0.71501429762171
