29
Coordinates from ORCA-job ./opt_b97-3c_parallel
  N   -6.00215619304896      0.44366146222098     -0.20574728802116
  C   -4.85824803141861      0.24472755390747     -0.13222649384831
  C   -3.46626394625816      0.01147032545695     -0.04487089627452
  C   -3.01213252419606     -1.29540214782315     -0.25319724402349
  C   -1.73976575221797     -1.80892601190798     -0.18996010830429
  C   -0.47281757253579     -1.20319316105786      0.00258568835734
  N   0.54041435751378     -2.08330102513093      0.06397574285176
  C   1.81409266566046     -1.67204155038732      0.11045821524630
  N   2.75924348375363     -2.65625334082411      0.23986871509684
  C   2.14224995490980     -0.32990245059333     -0.01297255080977
  C   3.33009871475686      0.41511559388301     -0.11972285766996
  N   4.61192457862668     -0.05619543994981     -0.17307006950493
  N   3.08443134390016      1.74740370433812     -0.15901340200543
  C   1.75124959497867      1.89811675253847     -0.08362373920572
  N   1.20567280599297      3.14256990772579     -0.11194076698942
  C   1.07402407160726      0.63459274762618      0.01299952219122
  C   -0.25443362178554      0.23940231262914      0.10227410014091
  C   -1.28615302227137      1.19047013613466      0.36204791931531
  C   -2.64768573898947      1.10746822063118      0.29530503928826
  H   -3.78650940455714     -2.02106069971651     -0.46906061804597
  H   -1.65918904670831     -2.87783996168404     -0.33362349217060
  H   2.36819023423158     -3.55280705726349      0.48278570923231
  H   3.58488094427799     -2.41496285100593      0.76298741702077
  H   4.73698174901883     -0.93010840342590     -0.65801987909461
  H   5.28564317755478      0.64351035844639     -0.44176072365189
  H   0.27792055352020      3.23064149467097     -0.49040484291552
  H   1.84352277855472      3.86485299687081     -0.40613367363798
  H   -0.92398511744536      2.15049704383983      0.70380176847098
  H   -3.17941383542576      2.02002596885035      0.53507903846164
