31
Coordinates from ORCA-job ./opt_b97-3c_parallel
  N   5.32309910256292     -0.92597115955739      0.22055263891710
  C   4.19219744335653     -0.65296230738321      0.15459381711379
  C   2.83914645907339     -0.32347008165362      0.07732872982302
  C   2.31623326117467      0.98631430403190     -0.09833304826437
  N   3.07176403010234      2.12657591094369     -0.21732285810660
  C   0.91607151804016      0.89607129851500     -0.08083559381181
  C   -0.06183179182117      1.87904041923535     -0.06866572784847
  N   0.25184146444354      3.20714462086393     -0.08557450494322
  C   -1.42320570260434      1.46262941950536     -0.04587309996424
  C   -2.39018945061711      2.48416670225084      0.00028450477782
  N   -3.12465684730236      3.38651862803889      0.04177122134070
  C   -1.81302276123938      0.09999348805506     -0.01246483075916
  C   -3.17812196637868     -0.19276074637747      0.15715540109010
  C   -3.87507932712764     -1.39066763028666      0.22401895252445
  N   -3.52535315072614     -2.65237818525803      0.01093812927922
  C   -2.27243139261736     -2.99537441170431     -0.30014056740924
  C   -1.08783533015599     -2.29287914467931     -0.31990587455436
  C   -0.78088542846735     -0.92785369367758     -0.07370043999350
  C   0.54490410813481     -0.50425151657093      0.01002232599119
  C   1.76191638698006     -1.23850033576990      0.15473383696464
  N   1.92158400346693     -2.57745065664650      0.31744932494336
  H   4.06304275713361      1.96456926615187     -0.30948295155926
  H   2.74215702084435      2.78848526054134     -0.90289249533347
  H   1.11943319852694      3.46511898071123      0.35518898366655
  H   -0.50172890041538      3.85210169480760      0.09441662443680
  H   -3.81034485444672      0.67347686086554      0.30675011258749
  H   -4.92855717731836     -1.27538931935589      0.46569592218952
  H   -2.17545166286310     -4.04460827802032     -0.56799064418922
  H   -0.24862400395363     -2.89215858630295     -0.64415509808304
  H   1.16187380378478     -3.08765344651004      0.73562384986285
  H   2.83220797312948     -2.88205463526384      0.62290727911099
