30
Coordinates from ORCA-job ./opt_b97-3c_parallel
  N   3.16774692759693      2.74934794642879     -0.43039131107340
  C   2.72593594650687      1.67951841087374     -0.27473268530461
  C   2.28013775470092      0.37404190352390     -0.09271873865584
  C   3.19446548256397     -0.73318393133773     -0.03026171775483
  N   4.55024247450939     -0.58708627074972     -0.03891617382130
  C   2.47257313334083     -1.91905160633370      0.09413857378725
  C   1.10946815598629     -1.58764513479748      0.10342048230587
  C   -0.02242934672110     -2.36411213469943      0.24794550093365
  C   -1.29853087053475     -1.80702242539037      0.19671716175055
  N   -2.40411064748725     -2.69137011434451      0.25809063322579
  C   -1.48477564825610     -0.42087067424827      0.03411688263003
  C   -2.78618837659411      0.09482224879723     -0.32920798189959
  N   -3.58720299944694     -0.67236237274014     -1.09578569778649
  N   -3.36339959865243      1.24932996286985      0.02208268669599
  C   -2.77595314562199      2.36628328817538      0.38060513318532
  C   -1.42747775698945      2.70775796324731      0.32847500587315
  C   -0.36717205939879      1.85560234459295      0.12285487789724
  C   -0.31351841435491      0.45298098397506      0.02929190379176
  C   0.96482384607040     -0.14543801145868     -0.01642384717501
  H   5.09398652136171     -1.38262645639530     -0.32210741837193
  H   4.90959560333702      0.29294565613215     -0.37006692058125
  H   2.88925797488085     -2.90970745810669      0.18425743747345
  H   0.07602471864190     -3.43464526125718      0.39200269169489
  H   -2.11032456124661     -3.63081401501881      0.47653814749250
  H   -3.09799144008116     -2.40436910007540      0.93402959851356
  H   -4.54616833580831     -0.37867082548314     -1.17051645513102
  H   -3.37029000022766     -1.65321249470937     -1.20917890059169
  H   -3.46523811073816      3.13870254603257      0.71127381640885
  H   -1.19076745906195      3.74896083372927      0.50599048668314
  H   0.59579193292385      2.34395437736488      0.11222615719871
