32
Coordinates from ORCA-job ./opt_b97-3c_parallel
  N   5.69900130698558      0.98010949395547     -0.08869304850866
  C   4.55911058961208      0.74227920742549     -0.03258995605100
  C   3.19632738553798      0.39423192044128      0.02579251341258
  C   2.28897702874224      1.40624495839371      0.38108604468135
  C   0.92383518801976      1.41628151205030      0.44088322403857
  C   -0.03558985388176      0.40274776263252      0.16598934194661
  C   0.30513865685123     -1.02222089501322      0.07311750721360
  C   1.59309493379544     -1.53573801499239     -0.11886751089469
  C   2.86288436000766     -0.96468605698101     -0.21665255151865
  N   3.87929611074652     -1.80447000967682     -0.57383220071725
  N   -0.64720044310773     -1.97926244952963      0.15249039129377
  C   -1.93907478011004     -1.65703240079234      0.17954518709639
  N   -2.82630313537833     -2.71039237830604      0.31217403695451
  C   -2.37443188136382     -0.34721727480816      0.02974346227160
  C   -3.64218459860317      0.24763111207145     -0.12552150729316
  N   -4.84006815133019     -0.42400223330423     -0.18642366870992
  C   -3.47111518748322      1.64705006933327     -0.19306410158524
  C   -2.11087662156952      1.93852274676142     -0.10355667199254
  N   -1.56126066816374      3.19376473717955     -0.16458429737671
  C   -1.38656023840713      0.69903192821844      0.04925466329807
  H   2.76142412686865      2.34531476204251      0.64275456492105
  H   0.50794107070829      2.34590935156062      0.80207758770192
  H   1.56998631656528     -2.61080536247207     -0.25142593854275
  H   4.83002125592110     -1.50387385903559     -0.44332092025467
  H   3.72302636244588     -2.79344773374894     -0.51445388986020
  H   -2.35185210521957     -3.56704210734716      0.55477175409974
  H   -3.61358862788323     -2.52370729326899      0.91357493142702
  H   -4.78977659294930     -1.33817326095443     -0.60924249451794
  H   -5.61388291790235      0.11243936367827     -0.54239709565969
  H   -4.25965633271694      2.36907685290175     -0.34475002013439
  H   -2.16369107526582      3.90269311563643     -0.55009712922996
  H   -0.62808291247237      3.24263665084828     -0.54131514440974
