31
Coordinates from ORCA-job ./opt_b97-3c_parallel
  N   -5.67968893803868     -0.51832296904070     -0.38886939517395
  C   -4.57524460526557     -0.16033009323189     -0.32060049451640
  C   -3.22075004389270      0.22020779052638     -0.19967766239189
  C   -2.87782745583392      1.50005503929789     -0.64419443185448
  N   -1.83690041411341      2.21354906277994     -0.30506624370933
  C   -0.76747871169199      1.78732978207960      0.34526736541337
  N   -0.20891150056294      2.63149796310530      1.20220138588494
  C   -0.12603730455081      0.49365565238895      0.12076120434745
  C   -0.88884992995066     -0.71561007451999      0.16269770654696
  C   -0.15511259406657     -1.94452654181284      0.06180054481485
  N   -0.81112045561391     -3.19290405810351      0.04418411925247
  N   1.15880626234101     -2.01397528313212      0.00161032954859
  C   1.86300105400653     -0.88621853103266     -0.02847166354291
  C   3.26552606497640     -0.73221758897731     -0.11056134044260
  C   4.21001400717782     -1.76738531962492     -0.13540010963259
  N   4.99360950642982     -2.62557887811482     -0.15281468803203
  C   3.52790211664113      0.64545975288343     -0.20007956641424
  C   2.32851379503525      1.37274619739733     -0.14966800236774
  C   2.23677070535489      2.75846256299576     -0.30402628040833
  N   2.12671501410138      3.91445440381581     -0.40285411557698
  C   1.25578776997910      0.42499831663700     -0.02292484063595
  C   -2.32443116347004     -0.74176569955275      0.35769026358198
  N   -2.86787925572456     -1.78449479855233      0.99116487579583
  H   -3.60586007192776      2.01468462388435     -1.26125150935792
  H   0.68488950242508      2.42622700900974      1.61266993787076
  H   -0.49831904626272      3.59628593279894      1.19044932232590
  H   -1.47508500040909     -3.28239732241690     -0.71453036613004
  H   -0.10678801181216     -3.91263303495150     -0.04755165845863
  H   4.50502376686014      1.08453523021965     -0.31340595080900
  H   -3.86931033560298     -1.88879869417726      1.02206549335483
  H   -2.29104749433801     -2.59694705387862      1.18387044321728
