32
Coordinates from ORCA-job ./opt_b97-3c_parallel
  N   5.15747698690634     -2.47242567702735     -0.61065841761185
  C   4.17321506045487     -1.89132231625690     -0.39360398180311
  C   3.01395338545453     -1.12359078176405     -0.14460927982694
  C   1.87318738059020     -1.82731477503213      0.22358131948600
  C   0.56195092447714     -1.42908521234425      0.40825561012208
  C   -0.25756155895149     -2.48138613759975      0.89453091104134
  N   -0.86106588601347     -3.37821558834794      1.32155112579544
  C   -0.03827633152358     -0.14102156676334      0.17133894827941
  C   0.72500670284231      1.10483020807205      0.21510633661075
  C   0.00220784522285      2.30956722370101      0.36415539201795
  C   -1.37102226595035      2.38407760295602      0.31357503319218
  C   -2.10159011381761      1.23515050130861      0.08854145101589
  C   -3.48282841149868      1.00867313267675     -0.10270867345918
  N   -4.48347042830166      1.89263765771957     -0.09297791469203
  C   -3.65847907121767     -0.40482116460070     -0.34026800923754
  C   -4.90782948155776     -0.97669534956361     -0.61190742390025
  N   -5.98377309403274     -1.36077147754765     -0.82933636295409
  C   -2.42234306888699     -1.02027543068390     -0.26955693354641
  C   -1.42382308526740     -0.03063216582517      0.00329828234254
  C   2.14550474670667      1.23735205270841      0.10545442855173
  C   2.64878457678203      2.55816984160382      0.17198192947908
  N   3.14503697223184      3.61010883265641      0.21202722893554
  C   3.16670986428674      0.28893073395277     -0.19144348714564
  N   4.39258671815831      0.75314640927317     -0.49491230859349
  H   2.04230873706954     -2.88488693709603      0.37531912776315
  H   0.55232056493089      3.22791677355464      0.48967695894096
  H   -1.84507603163726      3.35228836277435      0.41994585317426
  H   -4.32658065677429      2.86814289187844      0.07754175301582
  H   -5.43120310653000      1.59280245303138     -0.24365705584556
  H   -2.26786892822637     -2.06991523107839     -0.43585817267009
  H   5.16037087125518      0.11713312858558     -0.62324141280458
  H   4.59619275961771      1.73705732277809     -0.48374829317345
