26
Coordinates from ORCA-job ./opt_b97-3c_parallel
  N   3.79905067683549     -2.56343445415104      0.12505787145366
  C   2.98688049805166     -1.73434938316546      0.09925611796799
  C   2.10233135842231     -0.62223277703318      0.10993047047288
  C   2.70692312123755      0.58854390299944      0.49864035884625
  N   2.30047560473696      1.82366323932413      0.40583911486394
  C   1.10552739876705      2.24451267978041     -0.03867717632897
  N   1.11503363217896      3.54119696501644     -0.39842965800536
  C   -0.12373270776517      1.52094888865456     -0.07978559546122
  C   -1.24082656267681      2.35524416396311     -0.30084596340922
  N   -2.07205742011275      3.14070028450696     -0.51619562431370
  C   -0.33627683814128      0.11868899991998      0.01300339775666
  C   0.74403886773823     -0.88076657712878     -0.17156459766298
  N   0.49589412435177     -2.15413561584712     -0.50596283898206
  C   -0.75492645546832     -2.60554582496246     -0.53158866183538
  C   -1.82753062955042     -1.83111366882403     -0.14644525302548
  C   -3.19799146233440     -2.11151734099117      0.00491070202642
  C   -3.83321120151853     -0.93000210272297      0.40731848172320
  C   -2.89301513553064      0.09767665223625      0.48665392791220
  C   -1.61640147722075     -0.43211446432722      0.14856457450333
  H   3.71180287830687      0.48736492917359      0.89581852932401
  H   1.95414463748798      4.06204361667338     -0.21867187396647
  H   0.27995755547101      4.03188866400746     -0.66419982911211
  H   -0.88071657575767     -3.63725238512263     -0.84236125788421
  H   -3.66736416076655     -3.06943162247075     -0.15566639525897
  H   -4.88372339244337     -0.82431428617662      0.62699123592749
  H   -3.11445873339826      1.10550163156717      0.78826580266900
