27
Coordinates from ORCA-job ./opt_b97-3c_parallel
  N   3.69560677448749     -2.76281928285904      0.00491505986995
  C   3.04058668056270     -1.79937548673979      0.00349999647829
  C   2.26243244748567     -0.62533576571945      0.00127864069676
  C   2.99966594104571      0.59141474997941      0.00032775213164
  N   4.34308816608649      0.51084987773976     -0.00155003897882
  N   2.57715930236830      1.86620746585775      0.00171542350273
  C   1.33193553498139      2.27201958786268      0.00162570826816
  C   0.08766336197774      1.62361979446207     -0.00226437551096
  C   -1.01785436567405      2.51530918045430     -0.00317530981991
  N   -2.29823269390297      2.19589672218113     -0.00590901511744
  C   -2.54921596402634      0.88262416419134     -0.00868600182986
  N   -3.75034505084109      0.29762702101458     -0.01394669478256
  C   -3.44292817517481     -1.02358572155524     -0.01986657622478
  N   -4.40522934390973     -1.96107369479929      0.00794372781540
  N   -2.12496374230548     -1.35328453899511     -0.01918996587766
  C   -1.51046831872654     -0.14465794980059     -0.01141426815555
  C   -0.16365834238646      0.20527106612239     -0.00691230575339
  C   0.85267251947911     -0.82215684220036     -0.00206399658620
  N   0.40914108984262     -2.07717073173404     -0.00140327901737
  H   4.84095638181491     -0.36095315727912     -0.00015605872376
  H   4.85171983725068      1.37612215437051      0.00134773614124
  H   1.25641474883642      3.35654112529246      0.00490172129742
  H   -0.79948024019333      3.57794508624460     -0.00097685880307
  H   -5.34543996170831     -1.66543178833508     -0.18061290212007
  H   -4.15751652049083     -2.91001419298219     -0.20235644267423
  H   -0.60644494733285     -2.24242761726784     -0.00391099344444
  H   1.05162354905362     -2.85123492960578      0.00446736871847
