30
Coordinates from ORCA-job ./opt_b97-3c_parallel
  N   -0.83823489663795      3.82430386042544     -0.16322496462352
  C   -0.48702718128932      2.71530921728080     -0.08737955158901
  C   0.00913905042674      1.40379858552346     -0.00796404966583
  C   1.41891912335781      1.26143837998614     -0.01398693962690
  N   2.23282249952891      2.34996532780823     -0.05945665142241
  C   1.94058668140530     -0.02594454916581      0.05652535621529
  C   3.24531425978363     -0.53882493310238      0.06908490419818
  N   4.43501302787080      0.16975097709848      0.12358346704495
  N   3.24081812709911     -1.89402832933346     -0.01300346498279
  C   1.95257315827318     -2.27339610496451     -0.05639228194796
  C   1.07177030512930     -1.17022278127140     -0.00163505410353
  C   -0.33176250285708     -1.06260673014541     -0.00241012089045
  C   -1.09900957527805     -2.23656976697058     -0.05141388882313
  C   -2.46274757745510     -2.44995813459186     -0.04681004181320
  C   -3.51492000728109     -1.55890897386531      0.01640767236757
  C   -3.42620705760012     -0.16632100628300      0.09130752247289
  N   -4.60533500521788      0.53295128901976      0.21591101252132
  C   -2.25280965462730      0.59883346279867      0.09630167859236
  C   -0.89475053926191      0.28974773638964      0.03426419365646
  H   1.81724146800953      3.23555574531434     -0.29919694679444
  H   3.15843618971171      2.20125959548231     -0.42702321185614
  H   4.47242214175448      0.84902612762608      0.87018434999111
  H   5.22288089705210     -0.45934468146679      0.18314476866472
  H   1.70523378640808     -3.32228305022613     -0.11585071052923
  H   -0.51240554637195     -3.14372423732329     -0.09989357443895
  H   -2.75373265913701     -3.49273447970006     -0.10055000981721
  H   -4.51190892108531     -1.98327760421334      0.02020784131907
  H   -4.59100621728565      1.51328898175635     -0.00373158983816
  H   -5.45113009951936      0.06720363747755     -0.06017008934703
  H   -2.44989319630580      1.66268025613591      0.15537556616550
