25
Coordinates from ORCA-job ./opt_b97-3c_parallel
  N   -5.65676792789856     -0.46402103314642     -0.00073015905746
  C   -4.51625478998757     -0.24491455551259     -0.00054258470803
  C   -3.13438867460806      0.02297356121613     -0.00027687538962
  C   -2.55426362696402      1.31273989752599     -0.00047139174398
  C   -1.16724725985862      1.14315808689622     -0.00017879870559
  C   -0.12444316232494      2.04413678854453     -0.00039888491517
  C   1.19429652169596      1.58786641121181     -0.00015012915043
  C   2.22280247590982      2.56025949213334     -0.00041868333226
  N   3.06077473647146      3.36486361094860     -0.00058709676886
  C   1.52793112125567      0.19735974913541      0.00038764482418
  C   2.88077007375990     -0.13928915461667      0.00107391502612
  C   3.51276226583000     -1.37737163745713      0.00169388952804
  C   2.93836442359642     -2.62790291776612      0.00153737513129
  C   1.56745076319672     -2.91380086347925      0.00068463011439
  N   0.51664133507823     -2.13128239105401      0.00026821368656
  C   0.42246095673581     -0.78824642664026      0.00034480040249
  C   -0.88594652492801     -0.28376715548465      0.00018781765756
  C   -2.11801970649721     -0.95207695882049      0.00008784594722
  H   -3.09388660476737      2.24509841303537     -0.00081693013976
  H   -0.30870617100148      3.10989900837959     -0.00079181227999
  H   3.55821010049662      0.70469841595403      0.00119250890086
  H   4.59517347063117     -1.34186480954282      0.00230183667298
  H   3.60040732548006     -3.48469821605913      0.00199294048568
  H   1.31462362886260     -3.97136333567208      0.00036952540643
  H   -2.26458118266454     -2.01767599832942      0.00024727700733
