31
Coordinates from ORCA-job ./opt_b97-3c_parallel
  N   5.19479881154675      0.37754513479510      0.70760670765497
  C   4.07460270790624      0.22576916606495      0.43252931417530
  C   2.72435372660368     -0.03598825838410      0.10876948540420
  C   1.89252060599057      1.05147064915903     -0.11642918616384
  C   0.50930246071149      1.15241986920898     -0.26469821457522
  C   -0.05400274198422      2.48120647098107     -0.27906147407944
  N   0.79397329768866      3.57508313217016     -0.46181142457463
  C   -1.39435669535809      2.66393987363083     -0.02192582236533
  C   -2.23217500604089      1.57765892967026      0.22927898018657
  C   -3.59284468988080      1.49997359426098      0.52997778018144
  C   -3.94917651770805      0.14884151528061      0.58777586957389
  C   -2.83800657647322     -0.66364814088971      0.29972292043826
  C   -2.81984892889142     -2.05567695497657      0.39190570466757
  N   -2.78247784007188     -3.22087781796634      0.43631019619314
  C   -1.72073380884038      0.21835904954282      0.06835207447541
  C   -0.38824343156472      0.02495656547366     -0.24630640873453
  C   0.09410635220119     -1.27040220290860     -0.72698249346459
  N   -0.70469624377699     -1.92012787323432     -1.58200138677718
  N   1.21040175476109     -1.89401164368775     -0.41722247163571
  C   2.31859172125731     -1.41013119920860      0.11295009326696
  N   3.15680331265148     -2.32561237737346      0.62922951430424
  H   2.40142043145062      2.00217858827938     -0.03812820041915
  H   1.37444801073733      3.52380078208902     -1.28452804824618
  H   0.31060104878068      4.45795420788634     -0.43592016586659
  H   -1.80579176757998      3.66678190277082     -0.02145273964471
  H   -4.25354365512972      2.33553517969347      0.69647151494208
  H   -4.92506670211141     -0.23666278431538      0.83915580171253
  H   -1.64200472313941     -1.59257244127740     -1.73145007192584
  H   -0.53590885276302     -2.90058828764608     -1.73154424072707
  H   2.91842943490293     -3.29637481670599      0.54034813224067
  H   4.06052984672414     -2.07274296138317      0.98629735498262
