35
Coordinates from ORCA-job ./opt_b97-3c_parallel
  N   5.11425980593956     -0.99915990441143     -1.28557659100456
  C   4.06488113690939     -0.70859375525077     -0.86841790768473
  C   2.80871362470216     -0.35061039956122     -0.34874879640776
  C   2.56541207654864      1.04129344929998     -0.20015852577726
  N   3.59026655283320      1.86353939302976     -0.50222315963401
  C   1.35885656205126      1.65577298852022      0.23007267069387
  C   1.44160325953504      3.05578151131505      0.41848275001710
  N   1.65170429915461      4.19280655951238      0.55044809760246
  C   0.04632624082609      1.11693738513107      0.29243083485522
  N   -0.90701933507101      2.05156959875439      0.44813158777429
  C   -2.19481356685855      1.75909302326139      0.32871685806391
  N   -3.09319256343284      2.79083312792583      0.50885858854837
  C   -2.59327204159495      0.47829044096953     -0.03114772199497
  C   -3.79298108565593     -0.09050865199899     -0.52582976484989
  N   -4.96199642509990      0.54303234041891     -0.73702588778755
  N   -3.66102079287685     -1.40863312013700     -0.78564695447947
  C   -2.39294343493605     -1.73558173716805     -0.47985384012353
  N   -1.96178622758202     -2.97761587499224     -0.71233762011493
  C   -1.62589194150724     -0.56622653409504     -0.03072845914832
  C   -0.28408656798161     -0.29963918271799      0.22129443362426
  C   0.66340617244475     -1.33959804625046      0.54122371827891
  C   0.16548233507807     -2.45456125479296      1.21829712663464
  N   -0.23582601052098     -3.42005125747382      1.74306712082429
  C   2.02868985815861     -1.41188418693754      0.18234238479239
  N   2.65032149042134     -2.60236812234059      0.32509821300298
  H   3.48736939737099      2.85956443497987     -0.41822391841038
  H   4.49726300233382      1.49815540760437     -0.72960007149518
  H   -2.64260804636957      3.63022317775918      0.84225781473245
  H   -3.91218158831494      2.55552265421200      1.04712495938903
  H   -5.64626505071961      0.04650122594103     -1.28288732322810
  H   -4.94137096366642      1.54260586020741     -0.85173352831681
  H   -1.21796443693775     -3.36603268674708     -0.15033017210377
  H   -2.67725783417065     -3.62635589370974     -0.99937520807731
  H   2.15493293516662     -3.40394019302260      0.67078213517191
  H   3.64380951682282     -2.68243149683486      0.20609610043258
