30
Coordinates from ORCA-job ./opt_b97-3c_parallel
  N   -5.38099159379294      1.57664386275881     -0.57900859451085
  C   -4.48484236073543      0.87069533132381     -0.35837542411495
  C   -3.36774083792315      0.03774210041316     -0.08930087592992
  C   -3.67568549086929     -1.28612501839224      0.16857569877099
  C   -2.82104979479978     -2.33303155035539      0.46292451855441
  C   -1.44946103257090     -2.33347170722485      0.38452407058114
  C   -0.52253491460887     -1.32454849021059      0.07681824426509
  C   0.82458640630285     -1.80382771031996     -0.12200844503752
  N   1.03922270783438     -3.15462142927506     -0.29228251523700
  C   1.91673908739041     -0.93175855524348     -0.07857550628131
  C   3.21148620720085     -1.46428310148451     -0.27090490977961
  N   4.22961534763087     -1.99539998843220     -0.44445884952610
  C   1.68975267992353      0.43765210769401      0.09715904784128
  C   2.52829055203896      1.56237632745407      0.15740058833887
  C   3.92799571907796      1.61713915631644      0.16166066569536
  N   5.08727832002357      1.69940409096565      0.17178933418174
  C   1.65378782521467      2.67551596940509      0.20886368501831
  N   0.37134417058907      2.32033570278619      0.18393675402445
  C   0.34261145180513      0.94295925131326      0.12532696099643
  C   -0.77795418438884      0.10436151224261      0.07975166638248
  C   -2.10078923129321      0.71558636735673     -0.00085861012005
  N   -2.14343175488733      2.03911061608180     -0.03907245680701
  H   -4.73261599411735     -1.51895758496836      0.15689531420522
  H   -3.28798581238715     -3.26935105055695      0.73646738688420
  H   -0.99310960835167     -3.28657741068618      0.61412244925356
  H   2.00123406969973     -3.41871437542446     -0.43691353377841
  H   0.42301467352578     -3.62673356890288     -0.93126555924909
  H   1.94839819765805      3.71178217255654      0.26544245954902
  H   -3.02667627625407      2.51788845537976     -0.11335392679816
  H   -1.24515264533704      2.56391150042903      0.03716638552663
