33
Coordinates from ORCA-job ./opt_b97-3c_parallel
  N   -3.27680442923245     -3.24640834175310      0.44720195363226
  C   -2.54739313396135     -2.35699666573851      0.27918600937749
  C   -1.57780246664028     -1.35014374188126      0.07794057451283
  C   -0.21909045080114     -1.70802521530480     -0.00234529226461
  N   0.10780110451389     -3.08557157682499      0.04109231488290
  C   0.78041562390872     -0.72645850894047     -0.15453817935637
  C   2.14871695299664     -1.16462874975213     -0.40273696397725
  N   2.34214744433927     -2.24948589315655     -1.17789924895462
  N   3.25709430467158     -0.64935325804590      0.09687432873331
  C   3.47656350808801      0.61332733458228      0.43002219142237
  N   4.66179330156451      0.83186408804056      1.07891466659406
  C   2.72787832043201      1.72196475366072      0.03285855355839
  C   1.39982145150799      1.73158800233807     -0.37200963377070
  N   0.93995795526627      2.90826339392357     -0.87459873600042
  C   0.42371669983816      0.67696471806103     -0.18809535261741
  C   -0.93721559178548      1.02944429144901     -0.09771842099462
  C   -1.68234477511894      2.22945201252470     -0.02657991104426
  C   -3.02370487266276      1.83175158554653      0.11041152630551
  N   -4.12236751338024      2.64210746628142      0.18262723171790
  N   -3.19219813894141      0.48492746020751      0.11966454511735
  C   -1.95360541238800     -0.01006987601026      0.01065092328669
  H   0.76726200666651     -3.30304721286720      0.77564446275055
  H   -0.71607955612247     -3.65521055095025      0.17432319873689
  H   1.56319638971161     -2.88332766033130     -1.31087621859338
  H   3.27053814877686     -2.63692097142171     -1.17545131255596
  H   4.73760086228492      1.64680931866490      1.65971645122007
  H   5.12829047341945      0.00819183513317      1.41693828085172
  H   3.24282293092388      2.67536091944257      0.03529243037315
  H   0.05226986088605      2.90479271074627     -1.34837134184204
  H   1.61489151065123      3.57304638784013     -1.20507735155841
  H   -1.33250024534648      3.24401679139913      0.04433619097063
  H   -3.98025353845134      3.56753152831165      0.54740985807249
  H   -4.94523589191629      2.18242034902632      0.53617302131397
