32
Coordinates from ORCA-job ./opt_b97-3c_parallel
  N   -3.17218980314593     -3.55175483523161      0.17882485644931
  C   -2.31593581355824     -2.76928494985839      0.15712602309909
  C   -1.23264971135025     -1.85536363786603      0.14071927384134
  C   0.06045155911762     -2.34741685412052      0.16658061851560
  C   1.18644764431948     -1.50560989011400      0.16712843969811
  C   2.42409396489769     -2.16953065867646     -0.00480330134087
  N   3.61377205033687     -1.74853903059576     -0.33620412178113
  C   4.02104819296586     -0.46578864516104     -0.35585373277239
  N   5.22937142485508     -0.30281202498373     -0.93788652366181
  C   3.42873910253322      0.63510355726364      0.27336293780871
  C   2.10507260322674      0.78056323646981      0.65566737987162
  N   1.79244047035389      1.81097791682518      1.46004729291912
  C   1.00084497538349     -0.08295330401626      0.25262914588112
  C   -0.28781338056484      0.42510980069094      0.09551341759506
  C   -0.79918220208072      1.76081912622885     -0.06240304976261
  C   -0.11262254431311      2.94579904576578     -0.31557176791321
  N   0.42299962827486      3.96295461919614     -0.51736216537276
  C   -2.20621970131409      1.67233469953592     -0.18069210952291
  N   -3.05276769129483      2.70107427703145     -0.34962488995526
  C   -2.59760869310387      0.30412906317035     -0.08570751575765
  C   -3.93438507079661     -0.09173015756021     -0.18239204483104
  N   -5.07550744474931     -0.29893807653941     -0.28141714281575
  C   -1.43222376457408     -0.46535073728551      0.05149582029737
  H   0.21019393828049     -3.41678645415404      0.15074395350822
  H   2.35871067224579     -3.25280692725922      0.05713195893612
  H   5.57347818711302      0.60602571785603     -1.18352565157360
  H   5.66394357564704     -1.11063837640568     -1.34675192463752
  H   4.08925444607659      1.46200403713065      0.50824017425679
  H   0.82905014268684      2.02033099444930      1.64979716431700
  H   2.43619581472392      2.57179361045870      1.58531923231921
  H   -4.00552056487214      2.51247707861500     -0.60863947691115
  H   -2.68882595342246      3.60865168042541     -0.58011862570004
