31
Coordinates from ORCA-job ./opt_b97-3c_parallel
  N   5.67205943254813     -1.43518529348344     -0.62339189030487
  C   4.64613693811128     -0.91568534818457     -0.44421408300318
  C   3.44368429083990     -0.21688575856482     -0.19682994311292
  C   2.26700521362420     -0.96805664039135     -0.16649199607737
  C   0.94371330863907     -0.61692023252297      0.03713553171647
  C   -0.01381045631859     -1.67807702794373      0.13159774259056
  N   0.40279123593780     -2.98116870617374      0.23351200322246
  C   -1.39505385621454     -1.40360537877546      0.06864489204161
  C   -2.29831015025796     -2.48370030242004      0.16900998529540
  N   -2.97373623118573     -3.42441411452156      0.26470722253390
  C   -1.84719019254097     -0.08275867741084     -0.04378376642249
  C   -3.10133534791921      0.51563561917131     -0.11185589435596
  C   -4.38364297025366     -0.03018237481872     -0.16297517795261
  N   -5.49209842543902     -0.38348605599307     -0.21273199724953
  C   -2.82569295233524      1.93536840284248     -0.12034694129874
  N   -3.75916087971020      2.88851414433461     -0.17619403992204
  N   -1.51702569114487      2.21637413642279     -0.06060577081872
  C   -0.89134587246722      1.01551163684149     -0.01654662416189
  C   0.48254322312439      0.76806539215534      0.05652587416678
  C   1.31110201413186      1.90687015039545      0.11691655121380
  N   2.60476244297166      2.10335735021675      0.19797665048451
  C   3.57238855833789      1.17414156905927      0.09878699617274
  N   4.79930774875258      1.67928545718507      0.27071569945032
  H   2.43887312374592     -2.01708054436642     -0.36551968783944
  H   -0.32507600509864     -3.67087705305181      0.32962774096822
  H   1.19163651119361     -3.16951138547936      0.82547701804352
  H   -3.48253514875346      3.85246643071810     -0.20294459613163
  H   -4.73215921565631      2.65483393433342     -0.25190173285507
  H   0.74454928018210      2.83204692125039      0.12018256006377
  H   5.62926699272687      1.11679332154842      0.19717960479450
  H   4.87956515372548      2.67072653932705      0.41311760564975
