30
Coordinates from ORCA-job ./opt_b97-3c_parallel
  N   -5.58720013019674     -1.20095862804905     -0.92825874527798
  C   -4.46212400705944     -1.20604307908868     -0.63484363295484
  C   -3.10438568362678     -1.11874854040308     -0.30015455690981
  C   -2.25830028296618     -2.13628533020696      0.10715503207108
  C   -0.96711442890163     -1.59431210392478      0.26953198570547
  C   0.20965705905424     -2.20150733011264      0.60368434310470
  C   1.40761264613495     -1.47051287719182      0.51496410401273
  C   2.59243149470708     -2.13517781689247      0.91281818656791
  N   3.50561488220322     -2.71460923219328      1.33499594520135
  C   1.42199041202466     -0.12106723737166      0.10209758100861
  C   2.63655216544356      0.42774253084270     -0.44595911115073
  C   3.54795268233632     -0.49547264945587     -1.03039792948431
  N   4.29372524641532     -1.17799165181409     -1.60201177038449
  C   3.02782277470125      1.74844922218398     -0.61033591114912
  C   2.36204095732014      2.91349808847564     -0.26212751462157
  C   1.07676104803451      3.01267998175278      0.21470637976764
  C   0.10131545885345      2.02027887004765      0.36776925472357
  C   -1.07238090774706      2.49925971859607      0.98796054604297
  N   -2.04001378047543      2.92123740499136      1.47973700212255
  C   0.15511187925636      0.60632123983435      0.10406418360877
  C   -1.01050240840102     -0.16643135460161      0.00309620048581
  C   -2.36716266428407      0.12165378680313     -0.36197242462937
  N   -2.92823336028983      1.24286808716201     -0.82726210724227
  H   -2.53709368966454     -3.16702720753771      0.24986558475623
  H   0.24743311573206     -3.24366528905408      0.88633124930413
  H   4.00558032207211      1.87658707297805     -1.05549647939244
  H   2.91045150306803      3.83786159747174     -0.37873270732318
  H   0.75292491156117      4.00493215913662      0.50152046196890
  H   -3.91739292045880      1.21634402408146     -1.02188968222405
  H   -2.58170994824583      2.14612364244047     -0.55263976560811
