31
Coordinates from ORCA-job ./opt_b97-3c_parallel
  N   4.94958814538735      1.94182971118306      0.21658745370267
  C   4.00790518828459      1.26324506667692      0.11568073061130
  C   2.83397827368777      0.51021961537184      0.01505033031040
  C   2.71990485928646     -0.88910537042857     -0.15408145296955
  C   1.36868006206979     -1.21106521579737     -0.12480949263858
  C   0.70696613604673     -2.44821863379261     -0.17055771448460
  N   1.39482020341121     -3.61423464479748     -0.35893233341282
  C   -0.68122358953196     -2.46007989128660     -0.05514316666931
  C   -1.46690762814909     -1.30856165294515      0.05248484798436
  C   -2.84902480693566     -1.49905065872715      0.23327986596236
  C   -3.89882841484716     -0.60521857946078      0.30714515924543
  C   -3.92441180396735      0.76667332653730      0.15063694455577
  C   -2.83487142684194      1.59858722908672     -0.12073551625777
  N   -3.10344253870590      2.94695249880068     -0.29509250480835
  C   -1.48765100870200      1.22704217562582     -0.15795694489187
  C   -0.81668153796667      0.01023767562893      0.00021599363073
  C   0.59594954586307      0.00583607205627      0.02600203298796
  C   1.53560046655698      1.06557072805001      0.13862854416112
  N   1.28873610483590      2.41248397441261      0.32207382567417
  H   3.55943409991683     -1.55602833459399     -0.26562598389869
  H   0.92875398481957     -4.47002242009242     -0.11441280396955
  H   2.37650756710799     -3.61004636649189     -0.14788877177624
  H   -1.18881491300390     -3.41697457222008     -0.04965389484205
  H   -3.13926770572827     -2.53810820277848      0.33717757207356
  H   -4.86585195714906     -1.06050700542656      0.48825005356020
  H   -4.89359411626958      1.24588546764801      0.22488563925891
  H   -4.03244093525565      3.17651062665111     -0.60305997696106
  H   -2.39738959172815      3.48214909693746     -0.77088452278412
  H   -0.82924511069324      2.05231902545863     -0.39211725200668
  H   0.54073547289265      2.61472766965218      0.96929659970328
  H   2.11886489090826      2.93641554786135      0.56045626354883
