27
Coordinates from ORCA-job ./opt_b97-3c_parallel
  N   -5.28401729935392      2.01814738913619      0.22594738426894
  C   -4.24863374377226      1.48713206216479      0.18721451833221
  C   -3.03026012643169      0.78225589407950      0.12378659612560
  C   -1.85540746081645      1.52581530848483      0.20715728882413
  N   -0.58544192641223      1.19072465229705      0.13348547285102
  C   -0.07730112181719     -0.06565180876423      0.06604815317249
  C   -0.80289985736070     -1.36319238563210      0.10421277798146
  N   -0.13273214046265     -2.52499521465376      0.23461161736056
  C   1.19664197441976     -2.56284124368265      0.21799207020735
  C   1.97345784921949     -1.43513845644312      0.03342355104215
  C   3.36270568637768     -1.19564115341131     -0.01356998057974
  C   3.58008435701713      0.18419743402805     -0.09920745928230
  C   4.79791902249604      0.87185576371541     -0.16023487948306
  N   5.77313847198396      1.50404754599349     -0.21085264127774
  C   2.30409463524376      0.84007332722982     -0.09206264019437
  N   2.06007279960446      2.14056503128383     -0.12326657429156
  C   1.29849099263374     -0.17790971824714     -0.03196286538363
  N   -2.11732056555842     -1.52850003030467     -0.04679646843232
  C   -3.09189159495180     -0.63917231461304     -0.09799503631400
  N   -4.29795120945734     -1.16754252639615     -0.36879437836362
  H   -2.01294673020400      2.59282029094233      0.33546222077008
  H   1.64557747538656     -3.54089466297253      0.35619055071513
  H   4.14139586392142     -1.94019389627317      0.02187503199492
  H   2.80404012177242      2.81792436432373     -0.11830634805255
  H   1.08527319096221      2.41419716952543     -0.04275185106724
  H   -4.35816336865364     -2.16568036582308     -0.46248166507726
  H   -5.13245669918635     -0.61063545818745     -0.41614375874663
