27
Coordinates from ORCA-job ./opt_b97-3c_parallel
  N   5.64382361847821      1.15082257267142      0.00818367654919
  C   4.61256505043087      0.61756438040221      0.00548098430652
  C   3.35355735935277     -0.04430102555003      0.00242689031903
  C   3.38976915333124     -1.44875345870818     -0.00077848807147
  C   2.32440801647012     -2.31641148949252     -0.00329743765869
  C   0.95839715198408     -2.03531965967635     -0.00351297214160
  C   0.24664161110489     -0.84478080628429     -0.00213398415894
  C   0.85767234009644      0.50734572187031      0.00076598926936
  C   2.22774563291133      0.77883659304595      0.00265469834019
  C   0.02563536255125      1.63086433668354      0.00030925884113
  C   -1.36968057443907      1.55663975767113     -0.00327066430765
  C   -2.13725879561094      2.74698461640970     -0.00265494887433
  N   -2.73527039280360      3.74099218246911     -0.00033748405510
  C   -1.98644745173732      0.30506701906300     -0.00754652772927
  N   -3.29424904670730      0.03363909300307     -0.00702735737465
  C   -3.36525589993155     -1.32416818164629     -0.00039224503634
  N   -4.57111355430925     -1.92926521698091     -0.03745494226958
  C   -2.09317435772625     -1.94769952125179      0.00230447238799
  C   -1.16828524019880     -0.90701456175752     -0.00026067109488
  H   4.37680705516499     -1.89224692955433     -0.00101166495943
  H   2.57794332919446     -3.36844871278675     -0.00567206138341
  H   0.33546498527419     -2.92073130243012     -0.00587388195721
  H   2.46326251304591      1.83583773314392      0.00482417549974
  H   0.48113097858461      2.60976990706663      0.00308317728026
  H   -4.65054538300143     -2.89755840209655      0.21095564156962
  H   -5.37377165265750     -1.34971853407733      0.13611186902535
  H   -1.91211028435233     -3.01010318940698      0.00004390768414
