27
Coordinates from ORCA-job ./opt_b97-3c_parallel
  N   -5.01877074184547     -0.07460073569287      0.28626407792072
  C   -3.90645157186597      0.24623246239966      0.17780884670948
  C   -2.53707537157380      0.59529763602715      0.05424934765558
  C   -2.29794634005308      1.93220853044264     -0.22667338555113
  C   -1.09257241504752      2.60877442762636     -0.27344305526649
  C   0.16256566501265      2.07884410673001     -0.09486393554842
  C   0.60143565533321      0.75120744640801      0.01250881093516
  C   -0.19415354918855     -0.47210504949577     -0.03699159079384
  C   0.49179049871412     -1.70734977971934     -0.21449452592843
  N   -0.22661974733733     -2.91612389653880     -0.42189228463139
  C   1.88159471409907     -1.80134600259222     -0.17464039975057
  C   2.64817111284615     -0.67534647487327      0.03271774524110
  N   3.98983958463819     -0.50569313687204      0.08467617198989
  C   4.10085533901296      0.83409723542224      0.18173726940146
  N   2.95803784700367      1.55940625072437      0.18726444402406
  C   2.00394768053238      0.60736963905365      0.10524785033221
  C   -1.60526192401050     -0.47898932524099      0.26809410987367
  N   -2.13117909879221     -1.58984208797076      0.80273148733453
  H   -3.18844371421620      2.53071592408031     -0.37027447611955
  H   -1.15051367383144      3.67711357773406     -0.43345764108558
  H   0.98227268485731      2.78623355871822     -0.07846355440708
  H   0.40076346075491     -3.69653360574789     -0.54133887743294
  H   -0.83765877801484     -2.87149005266610     -1.22643048248118
  H   2.35845142360105     -2.76202839394522     -0.33197734864484
  H   5.06549833563444      1.31507738301369      0.25489177672865
  H   -3.12511947602327     -1.66248059399092      0.94233298496274
  H   -1.58096670333987     -2.44432813673417      0.78352479933246
