31
Coordinates from ORCA-job ./opt_b97-3c_parallel
  N   -5.18479216079616      1.15838118668399     -0.36847543472876
  C   -4.17839376064045      0.60075572745614     -0.19522544982832
  C   -2.92934523808540     -0.03307960383823     -0.00234715368130
  C   -2.96874949227181     -1.32502459677081      0.53802546988845
  C   -1.99126022125324     -2.26926291736346      0.57475586886843
  C   -0.66626287253623     -2.20162385009199      0.08652612595658
  N   -0.04866821700936     -3.36507482049140     -0.10672782460585
  C   0.12043384379080     -0.98915513431510     -0.09046306454200
  C   -0.40540237816230      0.35747346878887     -0.05924307382078
  C   -1.78432552712133      0.68612635766034     -0.40579890123335
  N   -1.99036480939348      1.78273945905745     -1.16134532785034
  C   0.49595355788483      1.44567872358407      0.12726769390917
  N   0.01385561516004      2.75636435568614      0.28927357082286
  C   1.88450168681109      1.25443807631765      0.11723587449217
  C   2.73918910930870      2.35385519885695      0.35748078089440
  N   3.41743252396482      3.27558076385954      0.55997434618203
  C   2.41675530130741     -0.01609623445656     -0.11060570644296
  C   3.71070855169673     -0.53727553092681     -0.19145733761894
  C   3.54088098025339     -1.91348034276132     -0.32729545470264
  N   2.23847289289488     -2.28773729965779     -0.33047220704956
  C   1.51552583686828     -1.13789897243502     -0.20169119278853
  H   -3.94003215428709     -1.63809419438556      0.89851185685634
  H   -2.28951418405559     -3.24245981697667      0.94538254186208
  H   -0.53064566278682     -4.21783759487518      0.12013075728257
  H   0.98434526221533     -3.34810852947126     -0.27511775797207
  H   -1.25933311334409      2.47906364974832     -1.20994616131648
  H   -2.93329820076154      2.10773344214292     -1.30135687010291
  H   -0.72935312806080      2.83134651063358      0.96828431387939
  H   0.74456315555111      3.41573274279775      0.51329444894934
  H   4.63799091669572      0.00871319665527     -0.15310884157588
  H   4.31466137346231     -2.65894104641287     -0.43444657308123
