34
Coordinates from ORCA-job ./opt_b97-3c_parallel
  N   -4.81880600663849      1.23958072283270      1.34520822540248
  C   -3.79828772987166      0.87786341423231      0.91339457431784
  C   -2.57521808988505      0.44506132465332      0.37097036060427
  C   -2.44193603966429     -0.95203984641510      0.13662112454320
  N   -3.54829226021338     -1.69617228771577      0.35761764826093
  C   -1.27834434535635     -1.62696278083069     -0.30242586806627
  C   -1.49661165139030     -2.98102657374572     -0.63072909132902
  N   -1.72696401081482     -4.09242329879730     -0.89324250170954
  C   0.09209972549414     -1.20384464541345     -0.23347537552150
  C   1.06838282262163     -2.19551637409285     -0.28799669359051
  C   2.43684349596037     -1.95619757287132     -0.13952457518875
  N   3.32151283398627     -2.98561151795233     -0.22602652445004
  C   2.83514926880211     -0.63773939216309      0.10094039931328
  C   4.04678474898776     -0.06064560296961      0.51023248322460
  N   3.93827780982628      1.25120051826665      0.75453535048044
  C   2.65078455766661      1.58534775382500      0.48742914374791
  N   2.25750261540334      2.83870593920631      0.74102214186108
  C   1.87271299236545      0.41929966768023      0.07347901580344
  C   0.51662167973643      0.19312305310106     -0.16910844157357
  C   -0.36217871540265      1.27939881901958     -0.50327663505553
  C   0.19206938719650      2.35585349286529     -1.20134892820188
  N   0.62068611504789      3.29474634328487     -1.75021430683531
  C   -1.72088454306358      1.45496859877276     -0.12645230777034
  N   -2.23480079102778      2.69921620555981     -0.21994927109038
  H   -3.53485740955872     -2.69022192818685      0.21650849176595
  H   -4.43664732402676     -1.26084017727332      0.52748956879386
  H   0.75121645981557     -3.22030801494340     -0.41640887448917
  H   4.25848571126290     -2.85420619343206      0.10692608639833
  H   2.97202760364239     -3.92403352345451     -0.15195132106816
  H   5.00147659838642     -0.55082439833889      0.64398926504758
  H   1.53295010249684      3.26784388304212      0.18519923043386
  H   3.00596953509273      3.45162374449448      1.02503952868936
  H   -1.67417342842194      3.46710650446638     -0.54135444927221
  H   -3.21597482645570      2.86246508079334     -0.08323186047635
