36
Coordinates from ORCA-job ./opt_b97-3c_parallel
  N   5.46873620535208     -0.76473682710479     -0.29664586307920
  C   4.31783684577380     -0.60650243358150     -0.20513720312733
  C   2.92890745205577     -0.40733763456894     -0.09567935256694
  C   2.47162779130446      0.88473691833076     -0.43681558606607
  N   3.38510681539672      1.73715199826685     -0.94335310482397
  C   1.14769498925140      1.39760847389340     -0.26054057028089
  C   1.01768720716573      2.74988880246628     -0.65517733901184
  N   1.01743952376178      3.83409384729617     -1.07814863895792
  C   -0.03948825319127      0.73576772049967      0.11983025995113
  C   -1.15517086027977      1.52252854393705      0.51853695790660
  C   -0.99589823382425      2.78761323728669      1.11310003638391
  N   -1.00421372738247      3.80096265152924      1.68612596104231
  C   -2.48900909605453      1.04138666185722      0.42328988003128
  N   -3.53896617907505      1.82902628728169      0.79183706774195
  C   -2.66964457637004     -0.23040280834236     -0.10600730287063
  C   -3.83070894647201     -0.94149411115163     -0.48198344543401
  N   -5.10579009586228     -0.45737820733891     -0.49957759772688
  C   -3.43798425810677     -2.26447044956009     -0.83497132342418
  C   -2.07483096483857     -2.37286926169772     -0.68705667086192
  C   -1.54765151809674     -1.11659733985196     -0.24511877016096
  C   -0.24090806148453     -0.71108755293352      0.02423897124844
  C   0.77095052464340     -1.66673428129377      0.34417724536115
  C   0.33000346162500     -2.92915169060880      0.79657745300239
  N   0.09214373050539     -3.99200847807801      1.20975273867252
  C   2.18061905554868     -1.52903544450000      0.36061077342550
  N   2.90335273231912     -2.58031459723989      0.80284237123303
  H   4.34904119721197      1.46870503202592     -1.02812428142295
  H   3.14866341855411      2.69718859732832     -1.12274284054009
  H   -3.31330828109183      2.68455387394125      1.27660526345051
  H   -4.34764677488984      1.35604363699777      1.15945807035785
  H   -5.78959429825379     -1.02437264441104     -0.97239664829111
  H   -5.21349934517020      0.52668067706855     -0.68912250584194
  H   -4.10288000156315     -3.03472946070118     -1.19329552605793
  H   -1.49889008614769     -3.24859434749879     -0.92819234468984
  H   2.45514625828843     -3.44234924046468      1.05789248361240
  H   3.90667513490866     -2.55628221927475      0.80012905132042
