33
Coordinates from ORCA-job ./opt_b97-3c_parallel
  N   -5.15112154114029     -0.36992381387334     -0.04107388376028
  C   -3.98631456336254     -0.40872176366019     -0.01061775165424
  C   -2.58263451881727     -0.44790948237125      0.00993767491636
  C   -1.96367084250842     -1.66159824125413     -0.41894124747538
  N   -2.64484312779300     -2.48868079450322     -1.23633810832372
  N   -0.80647918935549     -2.10620210123022      0.02503616139783
  C   0.15151758347295     -1.39057944688381      0.57246455410559
  N   0.91075775322733     -1.99984793818748      1.48474735425239
  C   0.50042233700988     -0.02109595834584      0.20269611049047
  C   -0.49738936133756      0.99754004677680      0.18547251416693
  C   -0.08100368988113      2.34447364738498     -0.04224918876211
  N   -1.03801031720627      3.40677630990806     -0.08362647153206
  C   1.25232162860869      2.65265687276914     -0.21763078900144
  C   2.23365550938613      1.67182127363424     -0.21467430834800
  C   3.62156359610611      1.72542474456178     -0.42984870673982
  C   4.10307764093704      0.42417872023378     -0.41531609967620
  C   3.04496227174485     -0.48631940072963     -0.17304128374227
  C   3.18168859840546     -1.87336884968462     -0.22495036211136
  N   3.27885025576935     -3.03642146697644     -0.24650745402567
  C   1.84541103577492      0.28888877414321     -0.02873009521172
  C   -1.89856686799831      0.70585782573112      0.45735880501137
  N   -2.61888732098516      1.64042597005173      1.09887266665308
  H   -3.60248844572949     -2.30042915748387     -1.47246768774875
  H   -2.31466588636826     -3.43285600589215     -1.32681613950836
  H   0.88319311152422     -3.00537190657813      1.52992839064802
  H   1.77000133863703     -1.56515064984958      1.77249804002745
  H   -0.56645007724437      4.29629022207011     -0.15504488046200
  H   -1.65396545832059      3.32477374921141     -0.88404827864522
  H   1.53023943747299      3.68366456218488     -0.40727505233447
  H   4.20097831246114      2.61786185748439     -0.60456036390731
  H   5.12441834365666      0.12104353613390     -0.58524598878567
  H   -2.23807589371469      2.58385923343863      1.12277357654190
  H   -3.61937089673483      1.53822785759311      1.15367966504201
