29
Coordinates from ORCA-job ./opt_b97-3c_parallel
  N   3.08223154764455     -3.89571477464402      0.40350694006082
  C   2.66386210033061     -2.82016280378046      0.29238547236322
  C   2.17898868432488     -1.48630965222278      0.16032482943853
  C   3.15987087630762     -0.48497622363024      0.21294754133300
  C   3.02782083251113      0.87073116537811      0.01076718266180
  C   4.24292572196569      1.60572835905600     -0.01791598223799
  N   5.20316236514397      2.25683269696612     -0.06560873885098
  C   1.83581498233757      1.63558719283982     -0.22364100022201
  N   2.02680520336315      2.90115507090254     -0.62219496495611
  C   0.48594944589337      1.20434607454809      0.00139906361177
  C   -0.47039860235469      2.22002264980405      0.19883647077996
  N   -1.78624118086443      2.05318615082540      0.26135402957617
  C   -2.24131864240140      0.82586027827003      0.08455717896047
  C   -3.59631856549215      0.39680918726322      0.05870036104456
  C   -4.72601747276174      1.21926878366056      0.17284551352180
  N   -5.66488317421314      1.89681934349765      0.26496535185325
  C   -3.58361647069467     -0.98827858734693     -0.10221207534636
  C   -2.24859023308570     -1.45508649127782     -0.16999908452203
  C   -1.90885875610996     -2.80246623073421     -0.34044226106162
  N   -1.61733976493609     -3.92029795384257     -0.48241696949615
  C   -1.38277221266760     -0.33898262893136     -0.06658647990088
  C   0.01944499765377     -0.17001019818425     -0.04584358301812
  C   0.81690395646198     -1.32924347270508     -0.01134983922407
  H   4.17115063978118     -0.83118554329118      0.37367643668911
  H   2.95362478596496      3.27810523639514     -0.73199480309128
  H   1.26362454628063      3.46467374165625     -0.94555274347422
  H   -0.14142043890012      3.23307666312742      0.38869164387841
  H   -4.45391959215308     -1.61924860296574     -0.16926573053372
  H   0.27008621946977     -2.25845728593378     -0.05534568403730
