26
Coordinates from ORCA-job ./opt_b97-3c_parallel
  N   -3.11633613631463      2.25085529754600     -0.12280138839250
  C   -2.44955775777918      1.03629930040863     -0.04656629530695
  C   -3.24995566723627     -0.11718189362433     -0.04429969606806
  C   -2.83077441286926     -1.42619479947746     -0.02514491420258
  C   -1.54754345777443     -1.95546728809519     -0.00495431699838
  C   -0.28818085603971     -1.35294205403837     -0.00094017189585
  C   0.82269732326864     -2.22122403008521      0.02328244239059
  C   2.12525651231223     -1.77125018324230      0.03062805653978
  C   2.39166547394356     -0.40975923327139      0.01356968685787
  C   3.59129489223769      0.31511528124271      0.01407539083596
  C   3.26392785789921      1.68030801319293     -0.01076389682925
  C   1.87537846019307      1.82550107492520     -0.02639179274271
  C   1.29037376752646      0.53691480060978     -0.01222231362534
  C   -0.05329099233709      0.10599188250047     -0.01860922271878
  C   -1.05874492690603      1.07941979561828     -0.04058503422362
  H   -4.06379717475682      2.25639994891793      0.21336740320865
  H   -2.59981609679264      3.05954701645874      0.17744539750750
  H   -4.32178651595124      0.04473358298963     -0.06668774861016
  H   -3.62526155852992     -2.16317028606454     -0.02265329160079
  H   -1.51639919941936     -3.03886576845202      0.00998154153405
  H   0.62844993665167     -3.28522337277264      0.03625676286372
  H   2.93915338664075     -2.48660000619039      0.04918317776757
  H   4.58495379784260     -0.10558163774573      0.03024835507669
  H   3.97281108973223      2.49475404707084     -0.01740777801785
  H   1.36009167408017      2.77358227827578     -0.04926050708488
  H   -0.66605616102173      2.08935318900263     -0.05363018126470
