33
Coordinates from ORCA-job ./opt_b97-3c_parallel
  N   -5.49257148781764      0.74920222288692      0.78114454260335
  C   -4.37766892529165      0.46936477364507      0.59032362614057
  C   -3.04670253019826      0.12525409642242      0.36030460306159
  C   -2.58164936754971     -1.16121699236179     -0.00781368257396
  N   -3.37925100251688     -2.24289414953191     -0.19846920749354
  C   -1.17759960076931     -1.10933022442073     -0.12480695853668
  C   -0.25750466573573     -2.13126897385275     -0.31803476283170
  N   -0.64497562561081     -3.44144849584890     -0.45855778236903
  C   1.11355761818217     -1.78541151562121     -0.32402738336401
  C   2.05862185109602     -2.82866897100768     -0.38805900099556
  N   2.73607921661927     -3.77189952611010     -0.45227329552755
  C   1.56810001644525     -0.46502339872348     -0.08984590858468
  N   2.86315667571112     -0.36626928325314      0.19085390115844
  C   3.60739285439449      0.70059855737263      0.44665474125271
  N   4.76489128776769      0.43128499346133      1.08045320730039
  N   3.46501184279790      2.00739904985215      0.12410860949551
  C   2.32686209487793      2.49681451967245     -0.29960696156171
  C   1.03143356429779      1.95871611061996     -0.39970375120680
  C   0.12290885543763      2.84089619485691     -1.01137045667059
  N   -0.63250368288466      3.58356075469468     -1.49891961130334
  C   0.58525772514323      0.62469233329284     -0.09295963755196
  C   -0.74892444568964      0.26052483345646      0.04966670909227
  C   -1.94688307344149      1.01471380996997      0.38990778961973
  N   -2.05467132546214      2.28115890734157      0.81035308873510
  H   -4.37103530490386     -2.06446843377921     -0.22125796757502
  H   -3.07699538585478     -2.91185423921235     -0.88813148210523
  H   -1.41722155758167     -3.72777615804157      0.12174703881316
  H   0.10848259397637     -4.11298791036074     -0.44296361127267
  H   5.02997156983635     -0.52650656075549      1.21989619786560
  H   5.44573329092621      1.16209751853949      1.17421871964151
  H   2.39686006568206      3.53201916130415     -0.62267819465083
  H   -2.98757150365627      2.61802669735627      0.99064109626781
  H   -1.42910907522967      2.98459896323349      0.45036808322716
