28
Coordinates from ORCA-job ./opt_b97-3c_parallel
  N   -5.23117728788211      1.23974487235038     -0.00890180594950
  C   -4.12500537107486      0.87793194495321     -0.00679337548579
  C   -2.80880424471220      0.36552114338710     -0.00381153949069
  C   -1.76640928951656      1.27699044533831     -0.00556326299905
  C   -0.38493955251713      1.11037885785697     -0.00150566535744
  C   0.35490226076974      2.33029585928572     -0.00173164189077
  N   1.66141197923503      2.45667401112415      0.00273077292873
  C   2.35677514192889      1.30296299054538      0.00833109567882
  C   3.72112755197211      1.08161114528776      0.01360175537207
  C   3.86670067548357     -0.32690239057910      0.02085142734264
  N   5.03073878636771     -1.02015093025982     -0.01573315113045
  N   2.68373595498673     -0.98773323012398      0.01776117690342
  C   1.72597414485385     -0.02079398422806      0.00888520584329
  C   0.34114979591821     -0.13570490997710      0.00463578091268
  C   -0.29153809501505     -1.45005835768819     -0.00247552423671
  N   0.53672164396103     -2.49350218899265     -0.01192465486108
  N   -1.57727684550958     -1.79930569733447      0.00066202437598
  C   -2.67439639696984     -1.06344602402206      0.00372550395419
  N   -3.81181394961995     -1.78654940409853      0.01435140935650
  H   -2.08921207531333      2.31084888459838     -0.01083230603112
  H   -0.21346448191534      3.25508750368194     -0.00597173341287
  H   4.50300624611819      1.82185994243775      0.00656393102239
  H   5.87121254912797     -0.54878526373753      0.26447658407632
  H   4.97987442668930     -1.99569909415975      0.22092444899106
  H   1.55334524341357     -2.33509852368130     -0.00952095644165
  H   0.12425491408045     -3.40988424040924     -0.01619856197312
  H   -3.73327925179289     -2.78652981162883      0.01169503047450
  H   -4.71989543216747     -1.35830167032642      0.01089063602764
