33
Coordinates from ORCA-job ./opt_b97-3c_parallel
  N   -5.47529657335363     -2.36800840715204     -0.20219515139153
  C   -4.60697878143843     -1.59317163166853     -0.14949059084973
  C   -3.51673565849934     -0.72199393881034     -0.08811963220834
  C   -3.52757801981626      0.68966473165935     -0.04080507753527
  C   -2.21227741407936      1.15226829422300     -0.00491097122543
  C   -1.66131430880455      2.44253949368616      0.04317857025329
  N   -2.45037002083900      3.56134473348103      0.03447921980949
  C   -0.27329492796229      2.55608949320896      0.02855320444498
  C   0.61458952882400      1.47109824865978     -0.01625729202169
  C   1.97730844736593      1.76896428948724     -0.09886593846806
  C   3.11049118413199      0.96470351835987     -0.13530483631506
  N   4.30667048696704      1.60784568775760     -0.29139454369332
  C   3.15400390110283     -0.45211442579382     -0.04819499664791
  C   4.42554891384987     -1.04444251576927     -0.00810447150787
  N   5.48508743803243     -1.53104703049807      0.03570895760323
  C   2.03245476996082     -1.32189021206457      0.04914597129130
  N   2.30807340675327     -2.65984088020868      0.12923469434756
  N   0.73510456145571     -1.06101897023351      0.03299709211111
  C   0.06051623479110      0.10381948029236     -0.00364645113679
  C   -1.32959662243422      0.01859649937181     -0.02723852545923
  C   -2.16186169627627     -1.15056250175318     -0.07728910471947
  N   -1.72037234632633     -2.40952236867787     -0.10365651361737
  H   -4.42913387003594      1.28164194071618     -0.05163752421804
  H   -3.40166974708287      3.45480882581276      0.33779858942028
  H   -2.02706133514916      4.42173280162960      0.33454585324154
  H   0.15630972741736      3.55069088554493      0.03106885984319
  H   2.19258020407133      2.83011731736146     -0.16019102750369
  H   4.34225049179302      2.59322296227311     -0.10782622077788
  H   5.16130639813287      1.10669267594376     -0.12078244143291
  H   1.56211984839354     -3.23662810584787      0.47254506166476
  H   3.23914254537323     -2.96142101225289      0.35833482101674
  H   -2.35297927333072     -3.17366157168663     -0.26489438449465
  H   -0.71879724638787     -2.52117664915179     -0.18138715122326
