31
Coordinates from ORCA-job ./opt_b97-3c_parallel
  N   2.81784492818309     -3.35499924213632      0.57912713789021
  C   1.94631613210475     -2.59441335876233      0.44016475925872
  C   0.84096086563612     -1.74273982654064      0.27329822673464
  C   -0.43486137617140     -2.35560764615814      0.24471461576115
  N   -0.56191357703550     -3.68247475218820      0.46517036705752
  C   -1.53105477307060     -1.53397886257960     -0.01729966851274
  C   -2.86101465467769     -1.80864745219391     -0.33643053673088
  N   -3.55488798012046     -0.69639321954467     -0.63239361875808
  C   -2.70810331799674      0.34778312156160     -0.48738754687162
  N   -3.13589251385633      1.57535288050427     -0.84900825461825
  C   -1.38000414915085     -0.10276291263807     -0.10215465664654
  C   -0.14594018691019      0.52245244432529      0.06441511199283
  C   -0.03427344028856      1.92851145843293      0.33783290286615
  C   -1.12249252051190      2.55169315427784      0.97615530351183
  N   -2.01616265253749      3.08683753779481      1.50043389449530
  C   1.03737536684848      2.80280656778969      0.09946872225894
  C   2.31823539053651      2.56337014117045     -0.31011998895598
  C   2.93703742801343      1.30614030191604     -0.42872348335684
  N   4.24869684154616      1.29991282642624     -0.82098817893410
  C   2.35069786561941      0.06700959460599     -0.17517646418049
  C   1.03563485924393     -0.34325246935402      0.06022634804738
  H   -1.44161374225861     -4.13054016669541      0.29422174061310
  H   0.25275157481654     -4.27144973742434      0.45628994166877
  H   -3.35124079092680     -2.77145241769281     -0.37627868880771
  H   -2.82252756899556      2.38002268743129     -0.32621250221401
  H   -4.11687021411673      1.59114723465076     -1.08165707862336
  H   0.80205276112161      3.84407888094007      0.28243469968104
  H   2.93976171466513      3.43199283203662     -0.48822558699260
  H   4.77351270031510      2.15255692239825     -0.74870511488005
  H   4.78636246249867      0.46254831558519     -0.68490441159694
  H   3.05265460747235     -0.75539901214116     -0.23804930145714
