34
Coordinates from ORCA-job ./opt_b97-3c_parallel
  N   -5.78548941804979      1.54518034357740     -0.79151695747034
  C   -4.77325431914785      1.03189145944000     -0.53653166434057
  C   -3.58868888608317      0.33361484209026     -0.20405582034649
  C   -2.41751609529944      1.09321149830759     -0.13686175183322
  C   -1.08347641340098      0.79572553583185      0.09521409557281
  C   -0.19132777317013      1.91450778984971      0.19358718249126
  N   -0.69149595402535      3.18802799050543      0.31408524930605
  C   1.19687279458103      1.71979820267414      0.11125687334653
  C   2.03190016310134      2.85419557375243      0.21636880873732
  N   2.63093185548026      3.84401516386063      0.32179685625457
  C   1.72738522598863      0.43000779665492     -0.03299369552002
  C   3.04921732848763     -0.01484864905561     -0.14158564727723
  C   4.24066130657360      0.70802339312298     -0.23114711356008
  N   5.28930123304728      1.20600589932542     -0.31929074795889
  C   3.02053980312588     -1.44696329236168     -0.16126778633988
  N   4.10168887283470     -2.22603703278255     -0.26165643232973
  C   1.68038006228545     -1.88311655643775     -0.05856346055343
  C   1.33714540246119     -3.23189445721080     -0.09659514291140
  N   1.10755790638336     -4.37551752623835     -0.13082166877061
  C   0.84880669967466     -0.72250138869202      0.02286591360543
  C   -0.53226294524181     -0.55808419443124      0.13501064400210
  C   -1.32886853222852     -1.70836596365945      0.32826093658973
  C   -2.67531819751384     -1.92798704682016      0.35827708584089
  C   -3.74397888774277     -1.04774370067380      0.08312845210964
  N   -4.98262230101576     -1.56757561596352      0.08587968034637
  H   -2.60127415680075      2.13724769222770     -0.35214629519091
  H   -1.46223550365138      3.31802962109928      0.94539415605793
  H   -0.00541360296476      3.92174663730654      0.39283579993527
  H   5.01195032289818     -1.82127201573575     -0.38849944846603
  H   4.01367353984895     -3.22493718254405     -0.30969222364250
  H   -0.75838177409320     -2.61029839843001      0.49454221726771
  H   -2.96871241471317     -2.94995246192389      0.56652832582953
  H   -5.78702384420322     -1.00708539524209     -0.13915226161850
  H   -5.12647445032645     -2.54894704802366      0.23437920753696
