33
Coordinates from ORCA-job ./opt_b97-3c_parallel
  N   -4.09118947556302     -2.93191320398884      0.36631958849197
  C   -3.44140971884354     -1.97345889295728      0.23050009956622
  C   -2.64470590902935     -0.82858539186333      0.06636558947437
  C   -3.25900324154214      0.30321502336607     -0.55358508485183
  N   -4.33704964507783      0.09024785279600     -1.34029665700057
  N   -2.94553925216273      1.56346657343690     -0.35038896545086
  C   -1.83499838764511      2.04899217966147      0.18281143292622
  N   -1.97560542009865      3.29567446588851      0.68504098306459
  C   -0.51598709154109      1.47845341031407      0.14266542851786
  C   0.56136877811467      2.37865260785906      0.05895107686955
  C   1.87320771165527      1.95625272463477      0.00084823125100
  C   2.15394192784683      0.60265854113488      0.01944751952019
  C   3.37289367716883     -0.09506114885733     -0.08410978445652
  C   4.65161618764474      0.44262184553337     -0.21458661314506
  N   5.73544217240767      0.85725042540853     -0.33174321119397
  C   3.06393802410436     -1.48621220300612     -0.10531792224542
  N   4.00166319447086     -2.47480246920111     -0.18582564664835
  C   1.67947256574131     -1.65567369966847      0.02204331069280
  C   1.07623491207897     -0.37655847679154      0.09929362600505
  C   -0.26221764102171      0.06591859221067      0.19470698730826
  C   -1.30263634981734     -0.89857318469431      0.49263260122922
  N   -0.93114039802617     -1.99543052980670      1.16612185898288
  H   -4.74372508172910     -0.82481519563119     -1.41418414007225
  H   -4.91679166964026      0.88045820734618     -1.55785934577865
  H   -2.89155815303922      3.70632610559089      0.67392814630775
  H   -1.27915344017582      3.68724997949313      1.28880324454983
  H   0.35522240038905      3.43268987603122     -0.05230549244264
  H   2.67460376219370      2.67710061581582     -0.09491830470958
  H   4.90616030597996     -2.20464872207064     -0.53517420065878
  H   3.69241281954835     -3.37178205229551     -0.51637115172175
  H   1.18834354384884     -2.61031723836483     -0.06752130191770
  H   0.01350167787697     -2.07668335571772      1.50125753253679
  H   -1.58593518951732     -2.72667363420685      1.38115062129918
