26
Coordinates from ORCA-job ./opt_b97-3c_parallel
  N   2.57138684101201      1.54696968270531      0.93559879479643
  C   2.09227680402724      0.47720940494936      0.27347264544688
  N   3.04704379740516     -0.40453529690645     -0.04944955799244
  C   2.91828687731587     -1.68628918120940     -0.29238891362516
  C   1.79834560532389     -2.50713864558960     -0.14316715095329
  C   0.50113202176594     -2.10019583325158      0.04181647406144
  C   -0.06725303358081     -0.80901476485704      0.03291334667679
  C   0.67962465598895      0.43415823631972     -0.03447917779554
  C   -0.04558421414919      1.63349145565077     -0.21957729778322
  N   0.61180331275226      2.87685735693654     -0.36917123154520
  N   -1.37687593259374      1.72510643652416     -0.22362930811627
  C   -2.08771212047665      0.62237789043631     -0.05222324616930
  C   -3.48287907903477      0.46815047112413     -0.00153039237587
  C   -3.73272985738271     -0.89695864917951      0.13248316654558
  C   -2.52101323536877     -1.62296478754637      0.16948587399262
  C   -1.47042331764588     -0.70959398078111      0.06766413408804
  H   3.57236089208609      1.63762419327136      0.96944079178841
  H   2.00192003731381      2.38385962088379      0.98872228894232
  H   3.83909541309389     -2.16915190828336     -0.60820373298031
  H   1.97570786935314     -3.57199901672253     -0.22863121514101
  H   -0.22379770228535     -2.89907075108605      0.12467832323434
  H   -0.09085726642870      3.58247978297097     -0.54065359914051
  H   1.28463706022186      2.88112850551831     -1.12383364799994
  H   -4.20713737271727      1.26287160187598     -0.06791713144971
  H   -4.71282136972265     -1.34538374048066      0.20396496496355
  H   -2.45169894347363     -2.69404839007309      0.27799836013134
