28
Coordinates from ORCA-job ./opt_b97-3c_parallel
  N   -3.28195967695256     -3.32913489713715     -0.02083143073333
  C   -2.75842804616727     -2.29156312303271     -0.02198364332639
  C   -2.21884551625877     -0.98062814686949     -0.02968574388374
  C   -3.16003491228202      0.04042395403427     -0.18914398517902
  N   -3.07429495765355      1.35362006672369     -0.18294164923611
  C   -1.91841928695985      2.03330376013976     -0.01059701571846
  N   -2.14069432226447      3.37282012787874      0.10144946827332
  N   -0.64119913591088      1.68621895323064      0.01571047074353
  C   -0.10943028022698      0.43249665782546      0.00204861005656
  C   -0.79574412071115     -0.86031966941158      0.06260578682894
  N   -0.13273268657098     -2.01723781274116      0.15887000481428
  C   1.20656642730814     -2.05233701836407      0.15319267689583
  C   1.95461816994110     -0.91436470536285      0.02760296311586
  C   3.37040597429124     -0.63270193403144     -0.01175453887225
  N   4.33858194357629     -1.57204263618700     -0.00481641871178
  C   3.55126483326667      0.74944749970615     -0.11000580185803
  C   2.28175216535505      1.35853663360326     -0.12519419178917
  N   1.97326098360139      2.65097603970834     -0.19752030056890
  C   1.27218444482449      0.33303378525227     -0.04531992373516
  H   -4.17644648661383     -0.31680470062325     -0.32863134177207
  H   -1.41241781031153      3.94567918221558      0.48510825621953
  H   -3.09279378454123      3.65493918510019      0.24810079355027
  H   1.64560852428023     -3.04120464798297      0.24326849509990
  H   4.10820424162042     -2.51396400405967      0.25232906869433
  H   5.29152711392341     -1.29949070463830      0.15259248569930
  H   4.49842887616316      1.26196882616075     -0.16953524960101
  H   2.67133465032624      3.36850358479817     -0.26520270399337
  H   0.97735762934731      2.86100690066451     -0.18019925241291
