31
Coordinates from ORCA-job ./opt_b97-3c_parallel
  N   4.24308336237028     -2.75141772189102      0.32701003659250
  C   3.27355966185032     -2.12395567076208      0.21129123091267
  C   2.09300320269231     -1.35240984484007      0.06348269853498
  C   0.87138607686702     -1.99569699985785     -0.07120920651952
  C   -0.33621965933018     -1.28860142446093     -0.21126173261802
  C   -1.55819390219420     -2.07123213923435     -0.30936645246587
  N   -1.41583918381487     -3.37446552215260     -0.69335140933285
  C   -2.80939821340696     -1.67039721337943      0.11279215281456
  C   -3.19848579823587     -0.36478657835633      0.46931254515148
  N   -4.32901756751007     -0.21040126922197      1.20676230411199
  N   -2.67678603629214      0.75749884833239      0.00187368889475
  C   -1.49986391807351      0.90297297852980     -0.56163389507672
  N   -1.38084368017024      1.87841301301762     -1.46697901906874
  C   -0.29937493270795      0.13383040035312     -0.23436363902082
  C   0.91719992518940      0.80154156033745     -0.03599907440070
  C   1.28246857906211      2.17783057601441      0.11227255119094
  C   0.44521103979853      3.28999269525091      0.21530459709903
  N   -0.26614208764566      4.21231388629338      0.28182475736581
  C   2.68656692262531      2.22296584657516      0.30410650102937
  C   3.21536339961356      0.94028557317165      0.28190642880454
  C   2.15253232290444      0.04676178192501      0.09490170825248
  H   0.85892490801103     -3.06997027818579      0.01622917921871
  H   -2.25164594333465     -3.90093151294491     -0.87253505956917
  H   -0.64034798658938     -3.61002075107161     -1.28489325779482
  H   -3.57963818324522     -2.43028639678834      0.17035624818887
  H   -4.57028612806053      0.72753093788335      1.47551261473345
  H   -4.62053520321996     -0.94853695669417      1.81980055290010
  H   -0.46415583445913      2.16289313609145     -1.76422754246482
  H   -2.09775056741729      2.58456931048640     -1.49567770722414
  H   3.23832226642791      3.13524608008875      0.46817451385005
  H   4.25013761529547      0.66970468759056      0.41227849810987
