23
Coordinates from ORCA-job ./opt_b97-3c_parallel
  N   -5.25220594430252      1.15853830740851     -0.29821911285784
  C   -4.17317275727476      0.73493068697057     -0.22172908920935
  C   -2.86832807085293      0.21847544673441     -0.12753070886706
  C   -2.53838107235273     -1.15331941410757      0.04979866121984
  C   -1.15087765121251     -1.25163408124133      0.07117242615823
  C   -0.29425180819807     -2.33975446881912      0.22722345239247
  C   1.07139252460654     -2.16308128379107      0.17490674275947
  C   1.65729920832303     -0.90023824695329     -0.02802067386662
  N   2.96534345058783     -0.90354614639790     -0.28594425555675
  C   3.80940509781162      0.10646231734925     -0.40204913145022
  N   3.75303812092752      1.37357174656787     -0.00512303269783
  C   2.62147927542704      1.99064560946122      0.31680012603762
  C   1.30167305677117      1.57826836940482      0.21067933892862
  C   0.78034330381041      0.30179194133507     -0.02981996896709
  C   -0.59965401485506      0.08294460202441     -0.08118082431198
  C   -1.68948033467615      0.97207928266827     -0.20171200525144
  H   -3.24832790126867     -1.95766181809540      0.15009985501063
  H   -0.70081045633863     -3.33564928832948      0.35218293995395
  H   1.74305131129341     -3.00723889559097      0.21112867093941
  H   4.76996319701522     -0.17828130927220     -0.82025773726955
  H   2.76547551660294      3.00513595806892      0.67684506067144
  H   0.57183112603453      2.34856238993223      0.42602553902103
  H   -1.65188442707923      2.03649825827278     -0.36353443158698
