33
Coordinates from ORCA-job ./opt_b97-3c_parallel
  N   5.68229356154645      0.52267894307386      0.67684678532036
  C   4.55202134463196      0.34812254162139      0.45380835008876
  C   3.19743619098860      0.14093538276260      0.19416968275161
  C   2.55349818723626     -1.12513146950715      0.12688445437114
  N   3.19074340746276     -2.33253170400191      0.20615982923309
  C   1.17748501221805     -0.90071748871939     -0.04453961923403
  C   0.12554320792590     -1.77358632310120     -0.28045544045804
  N   0.32214449681423     -3.10803088859924     -0.46719923351522
  C   -1.19530558769390     -1.23293626583832     -0.28273816298599
  C   -2.22141218025298     -2.14099902556717     -0.60920812298846
  N   -2.94804670932937     -2.97901003062779     -0.96148950648853
  C   -1.45149903954105      0.14593288199996     -0.09028951429369
  C   -2.75943236152096      0.56755681586228      0.30026557495802
  C   -3.57898930494117     -0.38862796844511      0.95608429227462
  N   -4.26882402808464     -1.09222190177124      1.57287341501210
  C   -3.36498549683280      1.83355618139178      0.21216237859076
  C   -2.86931178886538      3.02031207811469     -0.26429950883147
  C   -1.56025473865218      3.25790883800917     -0.69188299281872
  C   -0.47194669846614      2.42988484352530     -0.63311168235422
  C   -0.33155204850385      1.07191605488697     -0.22258482168771
  C   0.94298444858565      0.52795244422766     -0.07348105841739
  C   2.21813448527295      1.15594415754443      0.08309612322401
  N   2.49485154335738      2.48324509846864      0.14879616587267
  H   2.68825447335421     -3.06141771478502      0.68775113891106
  H   4.15921679068146     -2.29059241846565      0.48325340111143
  H   1.19013958677803     -3.38323814260195     -0.89493452384117
  H   -0.47521724712041     -3.64842389480107     -0.76585932641965
  H   -4.38949645706795      1.85428315657156      0.56063033012869
  H   -3.55832743464844      3.85314995566545     -0.30459309081156
  H   -1.36888262901592      4.24249578289893     -1.10283545788932
  H   0.43061393125183      2.84857868215958     -1.05691649809993
  H   3.40630621416076      2.73204459673426      0.49948339031030
  H   1.75756342087045      3.09447463231419      0.45775701657638
