35
Coordinates from ORCA-job ./opt_b97-3c_parallel
  N   -5.82443648315277     -0.78990010446400      0.61624338703431
  C   -4.71647542115177     -0.48679888207944      0.41536029771565
  C   -3.38615112290073     -0.11184728756519      0.16776454311797
  C   -3.04001875025451      1.24882227305949      0.40878439901977
  N   -3.96251147995583      2.01972971765368      1.03131068312524
  N   -1.95153992154168      1.91889405178017      0.07073636367993
  C   -0.72600946522096      1.50762948616903     -0.21937713059959
  N   0.12040720357123      2.50676306788034     -0.51672975877973
  C   1.43675554538756      2.31897684664318     -0.49226181709379
  N   2.21102088472773      3.42246576681658     -0.78690925925959
  C   1.99398143527835      1.08587535051968     -0.15890905946368
  C   3.32155234120814      0.66329922448433      0.03795995179154
  N   4.45111710859227      1.39301780933994     -0.14964451505310
  C   3.29533599705624     -0.68627117687108      0.48034739454865
  C   4.41290282111477     -1.45894627485305      0.79059275058837
  N   5.35167216940879     -2.10025636435063      1.04721749807288
  C   1.95465159750299     -1.13832128611097      0.47484264829102
  N   1.58876508822238     -2.34825141770902      0.92511227640585
  C   1.11417119801124     -0.03298499717928      0.05166564609305
  C   -0.25420529644580      0.11089004620545     -0.15425362657847
  C   -1.11148006341834     -0.98816376584362     -0.48816856836775
  C   -0.50338289136115     -2.09386644001646     -1.09548179673780
  N   -0.03681934204580     -3.05171779091285     -1.57469707357954
  C   -2.52189946783944     -1.10679799495849     -0.34322231634952
  N   -3.08462235047425     -2.28744595482172     -0.67651679599546
  H   -3.79174449706708      3.00879816607494      1.03381287745887
  H   -4.89138951857990      1.68772097300012      1.21939629730571
  H   3.02338246127562      3.54329558605324     -0.20235546054052
  H   1.65184420222339      4.26150034540520     -0.82862403624288
  H   5.32019498170945      0.88439255550797     -0.10927097093172
  H   4.42571726787371      2.08028321551745     -0.88552350452182
  H   2.33211706604435     -2.98958314319264      1.15238743548921
  H   0.76855958785994     -2.79095047418891      0.54648721022218
  H   -4.08217484988302     -2.40026745819254     -0.66403079014207
  H   -2.53375330347673     -3.03349598490334     -1.06106243032403
