32
Coordinates from ORCA-job ./opt_b97-3c_parallel
  N   5.58152782369479      0.92024144382657      0.34928065206815
  C   4.46901090787389      0.59268726450676      0.23060813198759
  C   3.13677758619170      0.20751876870906      0.09010296456950
  C   2.66881381931250     -1.12253674209056     -0.04097285447973
  N   3.45389588295955     -2.22766185113092     -0.02170640555009
  C   1.25549427780134     -1.07381080045343     -0.09181082135655
  C   0.31249215935350     -2.06474737561014     -0.13812629274040
  C   -1.04476909602515     -1.73711037249063     -0.10112115959654
  C   -1.97306564805062     -2.79792217980656     -0.12093281461199
  N   -2.73911507102798     -3.67412195319926     -0.13700046101780
  C   -1.51257736282001     -0.37576654497520     -0.04151569555258
  C   -2.88436221968927     -0.19144310452639      0.12388451203535
  C   -3.71127635738406      0.94023144051436      0.17612982319969
  N   -5.02668055227340      0.71126562563713      0.49235245850785
  C   -3.33064488791263      2.26471945153863     -0.06023490172806
  C   -2.05600519473793      2.70427957140011     -0.36109092665862
  C   -0.84900538417222      2.03742517701170     -0.39740034122466
  C   -0.51363748400890      0.68646768598565     -0.13638394760580
  C   0.83725360519317      0.31582303013108     -0.04055813993766
  C   2.01924623049766      1.08906879145383      0.10654640144268
  N   2.14218727212029      2.43777300710784      0.23878171254757
  H   3.07873365269164     -3.08382022835615     -0.38781503427349
  H   4.43947360749758     -2.10259218127281     -0.17738639828874
  H   0.58603280198565     -3.11114135710079     -0.17669683106084
  H   -3.42819832497713     -1.11762512102281      0.26291259004598
  H   -5.69526610094697      1.42829851437776      0.27568069709119
  H   -5.37905003659195     -0.22527080592290      0.40409987499104
  H   -4.11405217417549      3.01228004249770     -0.03505052222810
  H   -1.98865309183911      3.75891891024743     -0.60527968358642
  H   -0.02400378721476      2.64612165325719     -0.73580960641252
  H   3.03214116299616      2.76474253313381      0.58136451278766
  H   1.35518670957747      2.92825530262066      0.63089640593505
