30
Coordinates from ORCA-job ./opt_b97-3c_parallel
  N   -5.52060727656008     -0.86935653347240     -0.17357826787592
  C   -4.41440990357838     -0.50497445817544     -0.13453903838440
  C   -3.09313194547633     -0.06370820176173     -0.08361858599005
  C   -2.67191990108248      1.28935493877266     -0.00351347069706
  N   -3.49416581005225      2.34973088136773     -0.00791456094164
  C   -1.24688690243069      1.30657706532626      0.03569569797820
  C   -0.30680891039893      2.29989239188993      0.15903554444644
  N   0.99704038793264      2.03767155556979      0.16821687464804
  C   1.46473771895989      0.77867720376072      0.07195940324277
  C   2.88137064240084      0.68989268554775     -0.03044583732831
  C   3.60104324819964      1.91159742877643     -0.02226500426931
  N   4.27935727254445      2.85549016232549     -0.02306865757548
  C   3.66849632020513     -0.46061723332520     -0.17922954403874
  C   3.32373104498590     -1.78176296739660     -0.18468497494088
  C   2.02514625965556     -2.31769734946392      0.01600406115273
  N   1.95901959608064     -3.68229252572467      0.10443420560132
  N   0.85658772607395     -1.71246672532023      0.09031161294238
  C   0.56590274500508     -0.38108921029315      0.03570460999933
  C   -0.78314309147220     -0.04900468923949     -0.01783697967448
  C   -1.93824776494202     -0.89082876171832     -0.08169867491875
  N   -1.89971543895297     -2.21796037883012     -0.12782198823845
  H   -4.48587006506146      2.21579743030472      0.08052198061743
  H   -3.14229345024949      3.26852547643150      0.18392485837521
  H   -0.57270059551599      3.34886936295502      0.24844243441034
  H   4.72583755855228     -0.25984040177250     -0.29729716616154
  H   4.12654781729891     -2.49587392064682     -0.31076624422278
  H   2.79620396850954     -4.18728688045579      0.33217881553571
  H   1.11001173629788     -4.06178717784440      0.48463489409619
  H   -2.73526450007138     -2.77233248041430     -0.18787653549894
  H   -0.97394149145768     -2.62956107737289     -0.10049658978931
