30
Coordinates from ORCA-job ./opt_b97-3c_parallel
  N   -4.47346652419999      2.41044515093339     -0.51096659813218
  C   -3.73661514554335      1.52249330210042     -0.34822861351793
  C   -2.84124112546905      0.45585809749909     -0.14411168535529
  C   -3.42296761279564     -0.76630439048439      0.31470660242432
  N   -4.67116059853634     -0.71966875586597      0.81452083922590
  N   -2.92679172183223     -2.00065891657541      0.24097475164198
  C   -1.68984723286536     -2.32047931264856     -0.06675211946225
  C   -0.50372291104024     -1.58393750332229     -0.15906032511681
  C   0.66281254809047     -2.38312038685711     -0.26602018764370
  N   1.90339982254707     -1.94302597243897     -0.24842564491071
  C   2.05986708500055     -0.62762197984033     -0.08124271887444
  C   3.26078817181338      0.07626853966984      0.02069061586683
  C   4.56896603333157     -0.40804048774410     -0.00770208287091
  N   5.69079477344148     -0.72002053727820     -0.01189473938991
  C   2.92537103901279      1.45591695727176      0.22942678861170
  N   3.84972264644858      2.42571283665196      0.38859313732731
  C   1.53223313427815      1.61253738525683      0.20527169164756
  C   0.94961264803057      0.34055166949975      0.01952700009805
  C   -0.35727967417602     -0.14893987716529     -0.09605858903246
  C   -1.46809918271551      0.74142284777288     -0.33171116970467
  N   -1.16059171893228      1.98031879447875     -0.74645876344525
  H   -5.13669159125676     -1.59460245948649      0.97625866330491
  H   -5.19851104574796      0.13292095158927      0.86859974961392
  H   -1.55994417687692     -3.39081899259462     -0.20232319150984
  H   0.53799221969572     -3.45757039055569     -0.34352547972602
  H   4.80310274871532      2.15870131832223      0.56435228347078
  H   3.57079008178889      3.32474522118815      0.73554559598204
  H   1.03534351490206      2.53658658916678      0.45029136973970
  H   -0.22149649251084      2.17018418258240     -1.05600209110875
  H   -1.88334137729884      2.62581272757473     -1.01508336115379
