32
Coordinates from ORCA-job ./opt_b97-3c_parallel
  N   4.80859178445962      0.89094819577387     -0.18893543511106
  C   3.72015270723299      0.47667953932259     -0.12817799124020
  C   2.41676337335252     -0.04724568223989     -0.06434548511468
  C   2.29199837116316     -1.42656040934458     -0.35247987766630
  N   3.37126610094675     -2.06369153506008     -0.88551925327594
  C   1.18490801537049     -2.20773700759511     -0.03482099837343
  C   -0.09248462049781     -1.82560555845681      0.33860443721880
  N   -0.87752399844967     -2.79114291573042      0.86245519289497
  C   -0.73137529639682     -0.53631833533255      0.10068154452691
  C   -0.01692080335452      0.71323968480315      0.12344996818045
  C   -0.79360846194834      1.91024128779736     -0.03892620796920
  N   -0.17337288183670      3.19060431802621     -0.12173487802490
  N   -2.10455256149800      1.95043568977430     -0.12260034113929
  C   -2.78588719100480      0.80292034871741     -0.11504039227859
  C   -4.15941769234157      0.60826920686398     -0.22664816923703
  C   -4.37158127169676     -0.77796222788754     -0.29059083356959
  C   -3.16091350340140     -1.46906493016414     -0.18103773857028
  C   -2.12273686238481     -0.50668616867993     -0.05898503123477
  C   1.39824961529411      0.83952113907384      0.38368717284048
  N   1.82313456883989      1.93856721248437      1.03708633962326
  H   4.26927241824756     -1.61108618599488     -0.87710629971802
  H   3.38994016401929     -3.06647114758224     -0.87938180741330
  H   1.36030212270887     -3.27799017001630     -0.04611438988070
  H   -0.46841841476972     -3.65112885379100      1.17586181357718
  H   -1.79070484306562     -2.54904639059477      1.20992771525226
  H   0.45924999620010      3.25552030199164     -0.91055838181245
  H   -0.91631594783481      3.86409495658769     -0.25261339756779
  H   -4.90109729752448      1.38656514656391     -0.29881356055932
  H   -5.33304473937325     -1.25327850074974     -0.42168051662323
  H   -3.06353507077537     -2.53375301757667     -0.31049806334361
  H   1.19090433665109      2.73640663684517      1.07121260838727
  H   2.80997154946888      2.13248846047036      1.07933388002127
