31
Coordinates from ORCA-job ./opt_b97-3c_parallel
  N   -3.69772277639811      3.69908195076573     -0.24443003068270
  C   -3.07807052803143      2.72104309182119     -0.15602767732159
  C   -2.39374947190257      1.48009719504780     -0.06440774531685
  C   -1.03986615361253      1.54156371373873      0.12882126767228
  C   -0.03979742676918      0.55179771732109      0.14404339861972
  C   -0.21206862292552     -0.87113676378116      0.06403657163253
  C   0.92607215340852     -1.67533163875871     -0.11230650161630
  C   2.22724729982914     -1.17511378808885     -0.14420076716844
  C   3.29027858363860     -2.08535532503380     -0.37374256472067
  N   4.12751013581895     -2.86638313800032     -0.55951985005360
  C   2.43608133374057      0.19315671573600      0.04208990512355
  C   3.54282279410595      1.05679982045311      0.08687596777188
  C   4.90660789481222      0.74742640426402      0.00299747356788
  N   6.04527228407619      0.52314052079479     -0.05986084108215
  C   2.98276157921211      2.35094536936245      0.24049976283940
  N   1.64341042027056      2.35041766730152      0.28517101197769
  C   1.27875989245815      1.05143240924299      0.17487475144934
  C   -1.47357126949336     -1.53927346941193      0.24799282742832
  N   -1.41835465583747     -2.83895133628668      0.59400137695287
  C   -2.78269566427439     -1.01472984928619      0.04311949836269
  C   -3.82736881603091     -1.96356631290220      0.10561130312418
  N   -4.69325180814952     -2.73895666443817      0.15560045697788
  C   -3.21710502640285      0.30882089817620     -0.18941966890899
  N   -4.51150693439199      0.51417756951275     -0.47011753740124
  H   -0.63041218860204      2.54049418239085      0.21564653044834
  H   0.81546731875030     -2.72928076157351     -0.31083258015895
  H   3.54234573459620      3.27067450300972      0.31890654778200
  H   -2.25445386872653     -3.38306178792457      0.71910644277315
  H   -0.56838684642502     -3.23230006371751      0.94936137795271
  H   -4.87750305103602      1.44792934757246     -0.54933191232816
  H   -5.16606545290745     -0.24723312080858     -0.52154996829709
