30
Coordinates from ORCA-job ./opt_b97-3c_parallel
  N   5.36430243870367      0.56247593653645      0.15117131121855
  C   4.21572085210868      0.38686625689385      0.09773650479823
  C   2.83418161629348      0.09125356968932      0.04034546715358
  C   1.97641091584793      1.15439693083857     -0.20096532348450
  C   0.58775497513815      1.24629382615026     -0.25930400383183
  C   0.18762807321250      2.56505284522435     -0.61493098274558
  N   -0.03219484023990      3.65721403858367     -0.94341020594203
  C   -0.41710522577934      0.25196452821092     -0.04426682532946
  C   -0.09673794591052     -1.19606318888766     -0.07221546648101
  C   1.17404898021211     -1.77056529077141      0.04589280589757
  C   2.46748903591688     -1.27465724958977      0.17154068911265
  N   3.45953343587238     -2.17442810392754      0.43424357433925
  C   -1.14773809333671     -2.11584313886365     -0.18262484866360
  C   -2.49129427205465     -1.76277805685647     -0.14404386227908
  N   -3.46007311641940     -2.71596104856275     -0.21988302720260
  C   -2.81352313029430     -0.41004797078963      0.06323715697857
  C   -4.03057204494213      0.22885595208363      0.25166460281959
  C   -3.77495910277194      1.61142362167874      0.44666387319877
  C   -2.42026024864625      1.84097668888413      0.36098960617107
  C   -1.76077729400326      0.58711551325387      0.11841962337852
  H   2.48445547932157      2.09432710351260     -0.36681773901309
  H   1.13674984072622     -2.85367960685074      0.09307198887404
  H   4.41947577058739     -1.89672246245281      0.32298446015858
  H   3.27207123652168     -3.15160154435943      0.30820323309830
  H   -0.89511290827917     -3.16607549699491     -0.25109116518242
  H   -3.21150200061677     -3.61868299367699     -0.58261645947458
  H   -4.39638851830211     -2.42235227452340     -0.42967591772385
  H   -5.00783013584153     -0.23025394207276      0.27708946748684
  H   -4.52491093790094      2.36181087990699      0.64174332585669
  H   -1.95073599292367      2.79721862633263      0.49129697161282
