27
Coordinates from ORCA-job ./opt_b97-3c_parallel
  N   -3.04044136088945      3.09777422873139     -0.05656146009599
  C   -2.11240992579495      2.39689727287698     -0.05764478908484
  C   -0.96842709154737      1.56788670208975     -0.05937935665462
  C   0.28386134206430      2.19917618484247     -0.12807404192426
  C   1.42706646659797      1.45203989415927     -0.08600039986327
  C   2.78834615167915      1.81717863652481     -0.07949598592381
  C   3.54320396294130      0.66090607405200      0.04570885379998
  C   2.68391184756538     -0.46203808621677      0.10561415860525
  N   3.12444138554305     -1.75987514352792      0.23651843600470
  C   1.34250054520100     -0.00119052801843     -0.00313189591302
  C   0.10798723523363     -0.66506753673584     -0.07025399046438
  C   0.09498829401527     -2.06509966585932     -0.29427065801552
  C   -0.91096601253638     -3.00766672257309     -0.26673953377781
  C   -2.26120003992910     -2.84996248349823      0.01211949128355
  C   -2.91100338951586     -1.64489779438811      0.22079857205527
  C   -2.40627305609291     -0.35924608485798      0.17866029756739
  C   -1.10613413414403      0.15201982787154      0.00614273379597
  H   0.32432103001071      3.27812630033945     -0.19171578530397
  H   3.16895714290539      2.82482513259207     -0.13136329030391
  H   4.62005274163516      0.60946198875887      0.11148429119199
  H   4.07335781705206     -1.84192126049311      0.56537955505638
  H   2.50696400886153     -2.38111979945948      0.73635083866771
  H   1.05376208587873     -2.46652840266514     -0.58769772943273
  H   -0.59000938961485     -4.02030848593812     -0.48383433614236
  H   -2.86600355623517     -3.74723842794638      0.03982576603305
  H   -3.97618782340067     -1.70690965140384      0.40984178745086
  H   -3.15908026117725      0.40601522044441      0.31681537188992
