28
Coordinates from ORCA-job ./opt_b97-3c_parallel
  N   3.24036473976345     -2.99581319325144     -0.13743701154795
  C   2.85340004322019     -1.89954555811509     -0.09995172989062
  C   2.39137254533438     -0.55998734899017     -0.04959703156517
  C   3.41727502825846      0.38969504846725     -0.07272125240619
  C   3.33790319546653      1.76113224894126     -0.01931636851184
  C   2.17146110037427      2.52848429706811      0.07901259188964
  N   0.90648271688663      2.19756885473753      0.09818555826573
  C   0.32861728570440      0.97444085742388      0.03577218661204
  C   0.97198681621247     -0.36468164505707      0.01013251797099
  C   0.16286425842174     -1.49205949794166      0.04787546810602
  C   -1.24164990795068     -1.45421512564713      0.06501553510241
  N   -1.95416205539199     -2.62357756910325      0.13663524290472
  C   -1.86720109348672     -0.21633318487487     -0.02696616847391
  C   -3.21719575247353      0.17744555765538     -0.07974574685533
  N   -4.30874304439403     -0.66372265123047     -0.15635844801409
  C   -3.25838899644329      1.59990034504229     -0.02040728742841
  C   -1.96759823548088      2.08294899078098      0.03326101717519
  C   -1.06484968887741      0.98026213497595      0.01570243726838
  H   4.41487668616499     -0.02701053185369     -0.13543831588499
  H   4.27017149769847      2.31056809892334     -0.03769472967344
  H   2.33392718542058      3.60294564585170      0.14847822012738
  H   0.63482543881933     -2.46432305422917      0.07692467913597
  H   -2.85179292323237     -2.56651061307862      0.58989506989947
  H   -1.43220038562495     -3.44232302257358      0.40126175894404
  H   -5.18167946737942     -0.19542730367523     -0.33905628048979
  H   -4.19115547735159     -1.45575671681005     -0.77009089808715
  H   -4.16111201549680      2.19202692235912     -0.04534393383815
  H   -1.66668146926116      3.11585004630532      0.06452482546463
