31
Coordinates from ORCA-job ./opt_b97-3c_parallel
  N   3.34470168736428      3.42491929618301      0.59901906710705
  C   2.58919528317100      2.56359084593030      0.41225459083077
  C   1.63566994469346      1.54473235968398      0.17677457866667
  C   0.28106121919985      1.86549973416199      0.09354896710812
  C   -0.73879322379105      0.92395234435170     -0.09346174638295
  C   -2.06021305148790      1.47990834458266     -0.32442760798859
  N   -2.09539442889921      2.80482889885550     -0.70030777566713
  C   -3.28198511262900      0.87946320540413     -0.13454099614703
  C   -3.57719747364155     -0.43916711140997      0.24179499260855
  N   -4.90695122333053     -0.70190858139621      0.49552097965621
  C   -2.70673153992549     -1.51366988164138      0.25027468322965
  C   -1.35057125100974     -1.58208703513482     -0.08809162761856
  N   -0.85294879434666     -2.81465639677942     -0.27811675347557
  C   -0.40306230824792     -0.48111493057269     -0.14751851691614
  C   0.97175738945814     -0.78736806921259     -0.15246168396080
  N   1.60105929922677     -1.99401712671175     -0.24280915326118
  C   2.91495817014130     -1.67975038011289     -0.13110432687678
  N   3.87986109145830     -2.63567837967105     -0.13670886104738
  N   3.21289709578980     -0.37475609121847      0.02836718887898
  C   2.00168517859886      0.20922928740682      0.01693543215011
  H   0.01553476263350      2.89896904985515      0.24236063661816
  H   -2.98975870369801      3.16337737270703     -0.98441944643786
  H   -1.33508720600472      3.13707865423945     -1.26609998757106
  H   -4.14883288908427      1.50403034159248     -0.32078808626781
  H   -5.11838261767508     -1.57275896446677      0.94981666732904
  H   -5.46225110054299      0.06484895848740      0.83207762395282
  H   -3.16362003134854     -2.47435371877356      0.46418939576822
  H   0.17128625596031     -2.93168720415711     -0.31603188075483
  H   -1.44605785242119     -3.60961290226945     -0.12271197432639
  H   4.80900215689081     -2.30223316061127     -0.32470010912080
  H   3.63695918179770     -3.50928443850228     -0.56834262968358
