27
Coordinates from ORCA-job ./opt_b97-3c_parallel
  N   -5.79422238483516     -1.01111076841884      0.39824715712841
  C   -4.72429879103752     -0.58033887037837      0.26701672407665
  C   -3.42029315819468     -0.04766337522575      0.09625036617636
  C   -3.31945695768588      1.30124986323913     -0.27616611424738
  N   -2.26316424558588      2.07418517585930     -0.14537216557038
  C   -1.01489513633783      1.78015691722710      0.11151383717706
  C   -0.30974295756936      0.55522188971922     -0.03276859112653
  C   -0.98298585363655     -0.74526829569023     -0.03157903019475
  C   -2.34051875884037     -0.93596972837076      0.18828945478590
  C   -0.15898522334358     -1.92235764807376     -0.14217274407240
  N   -0.72566120852724     -3.16738392696923     -0.25492593233906
  N   1.16664457102950     -1.89681323983322     -0.09767397272250
  C   1.77447279844243     -0.72269719216008     -0.01756557457860
  C   3.16151466202014     -0.47064863224251      0.05023454723485
  C   4.17644501522815     -1.43540379001485      0.08861517376604
  N   5.02087602290385     -2.23297196020041      0.12004504588435
  C   3.33415332999032      0.92877207545980      0.04747410050924
  C   2.08903426658124      1.56841821146256     -0.00577174056428
  C   1.90870102287057      2.95538174914249     -0.05174449850765
  N   1.74528011055009      4.10722392028660     -0.08750901282735
  C   1.07834768304292      0.55637572155849     -0.03166863812207
  H   -4.21322713667318      1.79421110514823     -0.64195449414811
  H   -0.42497644498255      2.63149051424713      0.42813785340580
  H   -2.62915160979603     -1.95363095476324      0.41607878816767
  H   -1.51962708147758     -3.27248001021288     -0.86220177699123
  H   -0.03734819037267     -3.89353930128270     -0.37431295315881
  H   4.28418645743466      1.43554280908613      0.07586817805845
