29
Coordinates from ORCA-job ./opt_b97-3c_parallel
  N   -4.44140682622828      1.30255210930094      0.14340085085080
  C   -3.34692196626123      0.46644228637510      0.03494721783110
  C   -3.61831877469068     -0.90395173878282     -0.14389265980365
  C   -2.67814910217267     -1.90779756766320     -0.21146389080280
  C   -1.29741416553024     -1.83851740718257     -0.14688009837041
  C   -0.44548579178517     -0.73391512490082     -0.02563014854689
  C   -0.92483109323777      0.67259212642625     -0.02682531627152
  C   0.02113176713362      1.69694230479381     -0.09944249221002
  C   1.40071113927102      1.48255637992309     -0.10586984443078
  N   2.26890888133789      2.54400601480205     -0.20191683775363
  C   1.87549268808993      0.17639784870177      0.04027498694313
  C   3.17529750063630     -0.35166122480234      0.11598062759504
  N   4.35562518480747      0.39182047132999      0.14862098749762
  C   3.06802014856093     -1.76429873207423      0.12931233450064
  C   1.72670659599982     -2.11151855857665      0.08384417101213
  C   0.94505740082542     -0.92405603955793      0.03892153656089
  N   -2.19369028647413      1.10950719905766      0.05632072218971
  H   -5.28511564800101      0.91440648356165      0.52698275710305
  H   -4.21339997560632      2.22624074310335      0.47014386942220
  H   -4.65976791829061     -1.19050777709574     -0.22599535242859
  H   -3.07877546484406     -2.90817880949421     -0.33309567612238
  H   -0.79542393154906     -2.79406551408627     -0.21722122980925
  H   -0.36586471877005      2.70568902218722     -0.14515388499227
  H   3.16462083614034      2.33086872447163     -0.61311123823606
  H   1.86927511694204      3.39927563656770     -0.55045818717728
  H   4.33994694552291      1.13459172900533      0.83362040282789
  H   5.17320369926245     -0.18025851240322      0.29365799123857
  H   3.90008654721470     -2.44997585270433      0.19678290879659
  H   1.35296299539640     -3.12254212708324      0.11344154378615
