27
Coordinates from ORCA-job ./opt_b97-3c_parallel
  N   -4.15211536187535      2.44478291324403     -0.71101403095599
  C   -3.23731757321492      1.76147490476801     -0.50584025493384
  C   -2.09089007481238      0.96939264429421     -0.24934480440990
  C   -0.84708800612116      1.58174726541365     -0.10088454397957
  C   0.33396895944287      0.85988500451535      0.11788027590198
  C   1.54184327600984      1.61857665392019      0.41660590718885
  N   1.37510942231320      2.81718683977786      1.01413647163917
  N   2.77980523879418      1.31606799899925      0.11447877836717
  C   3.18682217880614      0.13106439998544     -0.36152968649825
  N   4.30793887822039      0.18450912719208     -1.10873077326477
  N   2.73466589390558     -1.09230820245252     -0.11338913153356
  C   1.50326541128501     -1.40050133563216      0.27146888200865
  N   1.31738680949428     -2.65264251631917      0.68521397891010
  C   0.30852773826651     -0.56158842572566      0.17262895545858
  C   -0.95191689528644     -1.16945584470582      0.11247306117650
  N   -1.29718039976622     -2.48111590388115      0.22429423072907
  C   -2.63730357606013     -2.46302578684418      0.05529607108134
  N   -3.21094560558551     -1.26617489744224     -0.15727086496228
  C   -2.16007907040040     -0.42087386847689     -0.11830967481171
  H   -0.79613894163837      2.65442210670517     -0.20653393371194
  H   2.20288809128902      3.33555145452965      1.25023349284662
  H   0.52561875034555      3.03205890618253      1.50072858933880
  H   4.77873856869965     -0.67313624351995     -1.33048526720042
  H   4.81017639162554      1.05050094786871     -1.16814022455032
  H   0.35236659152494     -3.01500653880291      0.70000420099930
  H   2.09561181388244     -3.28210667574342      0.58217536844663
  H   -3.21891929304435     -3.37191027894999      0.09798325842015
