26
Coordinates from ORCA-job ./opt_b97-3c_parallel
  N   -3.73435691700191     -1.82460650369585     -0.72853943010979
  C   -2.95987982325434     -0.82187508458495     -0.23516864915025
  C   -3.61431985937416      0.34381426686354      0.23159503469291
  C   -2.99322298125973      1.52431691373748      0.55153363880842
  N   -1.74565792052032      1.95166631185036      0.38413056021982
  C   -0.68057803236758      1.22893751731547      0.04760780272067
  N   0.42245110573888      1.93946836158367     -0.22127166757078
  C   1.62434590612038      1.36188917662935     -0.22971927829561
  N   2.67708406251423      2.16190577579057     -0.56656108584296
  C   1.79757715001647      0.02215494898252      0.13473856257354
  C   2.88431177128601     -0.85201974286787      0.26886256565801
  N   4.22213385678979     -0.55621954377136      0.24565081015658
  N   2.46829402258915     -2.15028804428775      0.39585368353929
  C   1.13324313561282     -2.12691387666970      0.33984848276128
  C   0.63211226962397     -0.80946519227286      0.20064288185115
  C   -0.64343383032525     -0.27447886363592      0.03146441656661
  N   -1.66672745577959     -1.09586462947474     -0.21462914086505
  H   -4.73152180360805     -1.79442961203188     -0.63102774930860
  H   -3.30044620674049     -2.72194466092030     -0.85103319991122
  H   -4.68987151074086      0.30397150447226      0.35707870173860
  H   -3.64133332805019      2.28495355401422      0.98184756183385
  H   2.41313150104774      3.04430578910992     -0.97428443305870
  H   3.47830700366211      1.71646472053394     -0.98212409386529
  H   4.48678038959997      0.30518570195504      0.69649251627688
  H   4.79921441385177     -1.33481951637144      0.52392214651566
  H   0.55662400216815     -3.03529625625266      0.41652119296405
