28
Coordinates from ORCA-job ./opt_b97-3c_parallel
  N   5.14114173614692     -1.99343641391679     -0.00184666931551
  C   4.10653156062969     -1.46708079080067     -0.00295616298828
  C   2.83646672644398     -0.82772032762337     -0.00403744227872
  C   2.84214216358563      0.56643202939439     -0.00705522958561
  C   1.78530207161560      1.45338378300236     -0.00887668019393
  C   2.15936410412746      2.82192346360060     -0.01256565096231
  N   2.42046242077541      3.95448220844634     -0.01530575412047
  C   0.36294960115495      1.20386421704469     -0.00672289244203
  N   -0.41225734674294      2.28140878847541     -0.00929230755708
  C   -0.30229665137774     -0.07878851837270     -0.00167190678596
  C   0.35250844418543     -1.38367688406033     -0.00176212396323
  C   -0.44848664491968     -2.56257831290094     -0.00158349410499
  C   -1.81741633941671     -2.56662043781016     -0.00020556271043
  C   -2.47065623000695     -1.33685311426276      0.00042071432350
  N   -3.77947960642056     -1.05797654512722      0.00407225076148
  C   -3.80202575995947      0.30075558428687      0.00817489529572
  N   -4.96249093888223      0.98048514544745     -0.02552057762793
  N   -2.60100235489410      0.92282992612731      0.00852151751763
  C   -1.70429752115825     -0.10437520581210      0.00325412659311
  C   1.71840923096641     -1.65708355666460     -0.00269322528989
  H   3.82133203604502      1.02563054494041     -0.00846241066705
  H   -0.00613325177410      3.20284329920534     -0.01608466740127
  H   -1.43878641771422      2.15230470398653     -0.00733444768350
  H   0.07297361248553     -3.50900025123964     -0.00204388624003
  H   -2.37866535243759     -3.49028491515170     -0.00113908895460
  H   -5.80192077188912      0.46783227446219      0.17374288473107
  H   -4.95082403175308      1.95870181661834      0.19622674813742
  H   1.95876692478468     -2.71170069599521     -0.00208690918706
