31
Coordinates from ORCA-job ./opt_b97-3c_parallel
  N   5.04128780764319     -1.75638395960021      0.38047639961249
  C   4.04773676595024     -1.15628369845249      0.27719010162365
  C   2.85265482403717     -0.42670960349252      0.14492973430628
  C   2.93710672881793      0.96213009733588      0.41732004548723
  N   4.07670898964064      1.41596888489161      0.99530054939422
  C   2.00246659306544      1.92423259789823      0.02664116335399
  C   0.69686503779623      1.77234757443419     -0.39943682772403
  N   0.09674611114905      2.84197701711395     -0.95566308553473
  C   -0.14457290286358      0.59868729691553     -0.19529859020209
  C   0.35536501168256     -0.73673730200806     -0.24042214817204
  C   -0.58543678136106     -1.80128517374165     -0.13976584887673
  N   -1.88966911556865     -1.66958074322560     -0.03380452012912
  C   -2.37072414105874     -0.42800578307522      0.00608119349988
  C   -3.70989489270172     -0.01676379549198      0.14293913728348
  C   -4.83711443467140     -0.84389302934541      0.21360251193321
  N   -5.78644820744378     -1.51386262973860      0.27008190757528
  C   -3.69783248154687      1.39632369662956      0.23140328319892
  C   -2.39976171302327      1.87717471328519      0.12154244050040
  C   -1.52689342501545      0.76636401113222     -0.03207165525310
  C   1.73292216783331     -1.13037132988480     -0.36413824953938
  N   1.97834065794810     -2.34537542130185     -0.89070614780382
  H   4.87422748378198      0.81302663502025      1.09868185103420
  H   4.25254039563267      2.40173349044642      1.04102656881479
  H   2.37114916648697      2.94396724383122      0.03148713623397
  H   -0.83996280710202      2.76232266382359     -1.31131952730053
  H   0.62543536000034      3.65920347035717     -1.19640915994083
  H   -0.22413949493312     -2.81771068720602     -0.04924431881590
  H   -4.57786651511452      2.00200133619723      0.38022734381209
  H   -2.13037960883446      2.91116047528622      0.25571855162986
  H   2.90431498481379     -2.73554689910606     -0.89761720057031
  H   1.24802960075902     -2.87514095602803     -1.32413588923139
