29
Coordinates from ORCA-job ./opt_b97-3c_parallel
  N   0.78441606584025     -4.29166298862824     -0.05451148915568
  C   0.58308912302759     -3.14695454094048     -0.01842836221699
  C   0.55430171202812     -1.73493958257996      0.00137776576204
  C   1.80969981174675     -1.06440166951077     -0.06578305683002
  N   2.98955158252842     -1.76978888162662     -0.11798912601346
  C   1.76836966426546      0.31595098573765     -0.02420424734062
  C   2.75137479140778      1.34717857747150      0.04779169998528
  N   4.09249372832961      1.18139746431596      0.12023621473355
  N   2.20942580103030      2.58302609821406      0.03347003930163
  C   0.87356934727481      2.39299443577678     -0.01928340238497
  N   -0.00981561694624      3.38158348241349     -0.03502772113228
  C   0.51800378142841      0.99762213814623     -0.03710288971354
  C   -0.72482758696848      0.38697035301625     -0.00346052778913
  N   -1.81783770011405      1.19410985118454     -0.04861989404756
  C   -3.08446466541355      0.80003978250346     -0.01525388203070
  N   -3.98981221585530      1.80665832601255     -0.11355331780583
  N   -3.68646060246739     -0.40214076101775      0.13328347867391
  C   -3.02663840324796     -1.54545409105732      0.20892424518528
  N   -1.75707237768314     -1.90429483425229      0.15294886835839
  C   -0.69768808557773     -1.07777767075323      0.05247626459431
  H   2.88694526230174     -2.76546491843496     -0.24872766694189
  H   3.69467764798749     -1.37955815872673     -0.72174508671899
  H   4.42652836889565      0.33632954709290      0.55352972102036
  H   4.61106228739883      2.01136205942084      0.35864004081956
  H   0.28810678113324      4.33698063748448      0.05069379060837
  H   -0.98428402167850      3.09933694565795     -0.01033875757059
  H   -4.94957377461599      1.54446668716883     -0.24267601568280
  H   -3.68592375823718      2.70683389481793     -0.43338400104795
  H   -3.69041218601865     -2.39795615860745      0.33521552997859
