33
Coordinates from ORCA-job ./opt_b97-3c_parallel
  N   3.70188498010979     -2.68235519271277      0.23575253400631
  C   2.98158825903031     -1.77273345174572      0.13825960187699
  C   2.13592069650319     -0.65371961322519      0.01818747964035
  C   2.74303381328233      0.54435953964428     -0.46145848002133
  N   3.93853711528567      0.42145401148670     -1.09046243111314
  C   2.27226982164924      1.82540182023626     -0.20408534521782
  C   1.04100756657108      2.24557712202470      0.30005018338277
  N   1.01188520832507      3.47058631016963      0.86711543927357
  C   -0.21074385264331      1.52397881685662      0.17010190036124
  C   -1.43569881675050      2.24745529829025      0.01261358721990
  N   -1.45003482686610      3.66921269293693     -0.07515308780170
  N   -2.62664897234527      1.69176440765383     -0.05483970205983
  C   -2.71249242969646      0.35960385004036     -0.07432774474355
  C   -3.85926975753764     -0.43510159939925     -0.21231010493252
  C   -3.44022527966187     -1.75436776354606     -0.31092910835000
  C   -2.02863025079986     -1.83726013180339     -0.19884294562214
  C   -1.29830212880721     -3.00669346308879     -0.41269351077939
  N   -0.67127302984406     -3.97890214656542     -0.56636388269590
  C   -1.54084167433647     -0.49996358838758     -0.02593585709273
  C   -0.29224599675412      0.09782745029934      0.17915728055543
  C   0.83382269604926     -0.77351370893094      0.52391643298190
  N   0.55147002459469     -1.80268131152174      1.32667440428687
  H   4.50729275801646      1.23545562324662     -1.23121941798869
  H   4.42262518118701     -0.45983108694407     -1.08073814543164
  H   2.99915761604807      2.61676155601157     -0.35034907670951
  H   0.11250178036995      3.93707766646483      0.95720511044692
  H   1.83926171555285      4.03943207207108      0.84370449574376
  H   -2.42116212616354      3.94455045321686     -0.14417521173267
  H   -0.97440631067970      3.99548956199414     -0.90869604366231
  H   -4.86934078408550     -0.06806790233246     -0.28420684402742
  H   -4.07310629439900     -2.61093896554963     -0.48260403617710
  H   1.18152610463074     -2.58596124373979      1.39670078478767
  H   -0.41105468633585     -1.99780658045080      1.54237741099625
