27
Coordinates from ORCA-job ./opt_b97-3c_parallel
  N   4.73521982836848      0.13166091268399     -0.11849062275438
  C   3.57524223515147      0.13123563232709     -0.06638943285935
  C   2.17026751783251     -0.00228831653966     -0.00904080589699
  C   1.61067710780652     -1.28884254002952      0.01746775222816
  N   2.42968524248837     -2.39804363140089      0.03106465591286
  C   0.19259860285914     -1.44958511610755      0.06438561713663
  C   -0.29772969361042     -2.76384051528943      0.27302792157547
  N   -1.44168923132882     -3.30665614037969     -0.06598771387841
  C   -2.46243039021060     -2.61104196577440     -0.57934376406991
  N   -2.83703414277208     -1.39640615840820     -0.30458153641765
  C   -2.08545792893635     -0.47413052545848      0.30535246826321
  N   -2.72115998180264      0.36054858371983      1.11218593892477
  C   -0.66490961042972     -0.28681351485315      0.05742090131774
  C   -0.10265690446436      0.97916587553286     -0.01917324429797
  C   -0.57927271012305      2.33220753900897     -0.09058397168252
  C   -1.88841613621877      2.80081433201460     -0.20791118546185
  N   -2.99241342836669      3.16857430361386     -0.27695644418964
  C   0.58184314622448      3.12264288223926     -0.14198624551732
  N   1.72473933120007      2.40994092135944     -0.09543677066636
  C   1.33932408682871      1.12523921452046     -0.03740349082580
  H   2.15057346732315     -3.17386667035519     -0.54308327673284
  H   3.41392804829667     -2.20076109743141     -0.06159436955615
  H   0.39875512624857     -3.45621127571310      0.73616940659868
  H   -3.12532337816366     -3.17548591014595     -1.22694450437234
  H   -3.72795152036518      0.36834699741918      1.11392040929830
  H   -2.25332596997718      1.15437068651395      1.51256557952536
  H   0.60209760574398      4.19850516023287     -0.22813127780000
