28
Coordinates from ORCA-job ./opt_b97-3c_parallel
  N   -5.34046633801682      0.11223506715859      0.05162564259795
  C   -4.18430397752736     -0.02935460598818      0.05437210852876
  C   -2.77951349782042     -0.12497718225511      0.04719569584515
  C   -2.22147821617329     -1.41223125754790      0.10041192742809
  N   -0.98979116096822     -1.84120998198403      0.07123950647777
  C   0.14401414597383     -1.11092148874222      0.00777187933199
  C   1.32706250981244     -1.88057675465901     -0.03762863937442
  C   1.22120712842566     -3.29421657183055     -0.05198347695558
  N   1.23969101903378     -4.45465477415715     -0.06981475949491
  C   2.61928380548545     -1.31818808234623     -0.05023232839841
  C   2.74113465713152      0.04154783868479     -0.01502492406940
  C   3.88032483979794      0.90903030091989     -0.00448088246588
  C   3.45584098362780      2.21522290854590      0.03395578859959
  C   2.02654196114930      2.21877634627934      0.04332881098210
  N   1.21561729631565      3.26905979577786      0.07385494475058
  C   1.56875136876878      0.85971506130653      0.01589687878203
  C   0.26653766411915      0.35837299956814      0.00069694988384
  N   -0.72703718139286      1.27760139598889     -0.02629187446979
  C   -2.04154943206457      1.09662589995156     -0.03243419388962
  N   -2.76079882417232      2.23966901051416     -0.09381822209717
  H   -2.95639533582046     -2.21027468181489      0.16811715875737
  H   3.47985497337134     -1.97129292535127     -0.07821189661866
  H   4.90747971344885      0.57949805156777     -0.02345536249899
  H   4.07810693897626      3.09570693050108      0.05299266058641
  H   1.55878484613686      4.21135154753288      0.12395041868764
  H   0.22315127732863      3.05190888345700      0.08257591085132
  H   -2.28079615141199      3.09783681621357     -0.28728641568966
  H   -3.75924222443488      2.21803972220856     -0.20396480296812
