30
Coordinates from ORCA-job ./opt_b97-3c_parallel
  N   1.21859296286608      4.68888958056137     -0.14752985132533
  C   0.82362928946208      3.59806166102752     -0.09596462931659
  C   0.36004126507646      2.26261461783698     -0.02644501214859
  C   -1.00441865457558      2.00389536922292      0.00794573488791
  C   -1.50889106742968      0.69934768752967      0.04418077998802
  C   -2.93763934510883      0.52031322749526      0.05035335991952
  N   -3.70984737159157      1.48393005251991      0.58309672608753
  N   -3.61544843028662     -0.45313487331080     -0.55819283529997
  C   -3.13794380023867     -1.64585671997704     -0.83536688371885
  N   -2.13843263247990     -2.30561036473129     -0.28527280402173
  C   -1.11525567536390     -1.75082742748593      0.34526047853457
  N   -0.48658007626691     -2.51222890613265      1.24107717974826
  C   -0.59579194895189     -0.41161186815352      0.08800469439497
  C   0.77442499502261     -0.17026635450795      0.02593994751997
  C   1.92670343471762     -1.01335139376290     -0.02652543841112
  C   2.01917542396918     -2.39393079565179     -0.16651278066351
  N   2.15054977668377     -3.54999055344713     -0.26829966486527
  C   3.07427454175078     -0.16551188578011     -0.09924968854532
  N   4.35310420881252     -0.62039013443981     -0.13551674511435
  C   2.66623401861835      1.17809400222585     -0.08416276432080
  C   1.27853381086026      1.19850137919631     -0.02529279111812
  H   -1.68321347105512      2.83856894941111     -0.07761864339657
  H   -3.33163411494242      2.19295664476056      1.18126051027223
  H   -4.70674653652502      1.39834166281741      0.49394743075880
  H   -3.73084466134845     -2.22240155906169     -1.53820074139502
  H   -0.67935794927276     -3.49992372092589      1.24796954883583
  H   0.38399728894367     -2.21063478064923      1.64052192465655
  H   5.05995603479397      0.00303252285843     -0.48186314499080
  H   4.49550569013233     -1.58812017193301     -0.37182005512402
  H   3.31383559752854      2.03917480418761     -0.11583298962803
