30
Coordinates from ORCA-job ./opt_b97-3c_parallel
  N   -5.01172796003496      1.17065622175329      1.38780950588399
  C   -3.99359316548767      0.80828837590092      0.96459646391714
  C   -2.74356651442190      0.37860847783979      0.44081027624187
  C   -2.58171877292655     -0.98405576670008      0.24401222397832
  C   -1.49350483926597     -1.66797409196468     -0.28927950303791
  C   -1.71752027356775     -3.03493940432900     -0.59434951154744
  N   -1.85489208303429     -4.15195802969757     -0.88171786639778
  C   -0.18426812442606     -1.18442125944927     -0.55869672191821
  N   0.65510218675742     -1.99609946021080     -1.19638637938982
  C   0.33824497488691      0.12404007247565     -0.19255337400766
  C   -0.49830190686838      1.31499881844670     -0.25170597782942
  C   -1.82907083744410      1.38861242520008      0.10102159391867
  C   0.18278166152882      2.58288671572976     -0.48586735229519
  N   -0.56210022011024      3.69072063849310     -0.80483553963413
  N   1.47456666497077      2.75656335912397     -0.32785520009426
  C   2.20738910589403      1.69289444419441      0.04080788875590
  C   3.56359155973172      1.65074068740689      0.32698768065154
  C   3.91200745666794      0.31188823478618      0.56612444634889
  C   2.80161435455569     -0.52748054522488      0.39647698216778
  C   2.78322433424973     -1.88942008597485      0.70348753703252
  N   2.74435134034294     -3.03309036856648      0.92582518544558
  C   1.67831541120823      0.32031532969697      0.06868649781308
  H   -3.43941735022816     -1.60006830583166      0.47621969868218
  H   0.42954488758103     -2.96509424479479     -1.35629148900401
  H   1.60938799368845     -1.72211565148501     -1.34766426710440
  H   -2.21533755318045      2.39271850930080      0.21117528534192
  H   -1.30409606767487      3.57682667154724     -1.47361205020958
  H   0.00370540015074      4.50828888827403     -0.96529027214532
  H   4.22233497866328      2.50172875925677      0.36445909789278
  H   4.88658426369122     -0.04033391599727      0.86540301744157
