26
Coordinates from ORCA-job ./opt_b97-3c_parallel
  N   0.41872936203166      3.32472771126315     -0.14422892205232
  C   -0.13892257992988      2.04176429181534     -0.08056792437434
  C   -1.51394790714573      1.90002658352838     -0.07747895305038
  C   -2.08889384590000      0.64078692759909      0.02616098295428
  C   -3.40256208609870      0.15809164945260      0.04110333436366
  C   -3.28937382097098     -1.23376062799386      0.07788871254504
  N   -2.00919563607093     -1.66251836596164      0.08652344036952
  C   -1.23787550832512     -0.52921108578108      0.05816336975173
  C   0.15547383299471     -0.42777935345750      0.02612724386662
  C   0.94697091237978     -1.63684270425166     -0.03588589943233
  N   0.28716518472829     -2.79375133531729     -0.02184927802130
  C   2.35363960002833     -1.71210175423219     -0.18224636293403
  C   3.30492063691928     -0.73913086775257     -0.06147906418146
  N   3.20874797637149      0.54913342003815      0.29048604038810
  C   2.07899406234867      1.21849561544547      0.33501298420269
  C   0.73035128901767      0.90443717329500      0.03954411504480
  H   1.15281375947134      3.43153818350096     -0.82568737140555
  H   -0.27458668858907      4.04395259980350     -0.27058781295971
  H   -2.13934598540680      2.78062271746403     -0.17544361289124
  H   -4.31276488380077      0.73461720705287      0.02480902732719
  H   -4.09730339039848     -1.95088358694661      0.10049438362821
  H   -0.75440164410545     -2.76437691416298      0.02970401787624
  H   0.79365155987733     -3.65846792463296     -0.09277653566933
  H   2.73731564518515     -2.70844688970970     -0.37551312073171
  H   4.32914693562497     -1.06416477711907     -0.22272268814953
  H   2.21595350686323      2.24153234026053      0.67012901283507
