29
Coordinates from ORCA-job ./opt_b97-3c_parallel
  N   -5.39892200375816      0.63343960785427      0.53897661144262
  C   -4.24224130267813      0.67633308893514      0.41960549234127
  C   -2.84222827347421      0.67168275224055      0.24070473486956
  C   -2.15851623566310      1.83956591918376      0.60036426022340
  N   -0.93295597563933      2.23974188929892      0.40018386504107
  C   0.13895235833780      1.54829657104876     -0.01100270030550
  N   1.18077906951758      2.30092854299959     -0.34580332917895
  C   2.41267902225042      1.78055302218806     -0.40504114811376
  N   3.37655138696317      2.59966874850842     -0.87235276647583
  C   2.65249303833288      0.46907352851979      0.02956346962119
  C   3.78459453585431     -0.27819213135819      0.36320423519113
  N   3.47859564798680     -1.53001827493115      0.74709367397747
  C   2.13621626134861     -1.65440123463660      0.63673344578898
  N   1.55159498845640     -2.79051466054822      1.05088718980517
  C   1.52836714691983     -0.40702337726704      0.19905598551627
  C   0.23671382125180      0.07009838404367      0.00291414024703
  C   -0.86561085876609     -0.76957356918873     -0.34951267363514
  C   -0.53818364956875     -2.01617811411715     -0.90361640426431
  N   -0.31275073326890     -3.07172876418152     -1.34715102589897
  C   -2.26330893939240     -0.51754679631186     -0.28015528776966
  N   -3.10632381127182     -1.48333388535209     -0.68793642626690
  H   -2.77921321608713      2.57880860425041      1.10067784562937
  H   4.34296661136880      2.33951879450054     -0.81951713120728
  H   3.15298915804928      3.57525769703194     -0.96042044685050
  H   4.81741750049153      0.04098267596057      0.35302798371051
  H   0.69935044190476     -3.10446594514025      0.61523887908080
  H   2.20126478111873     -3.52051562759958      1.29691714937683
  H   -4.10045573360386     -1.34480780556495     -0.64204435733079
  H   -2.76883888167731     -2.37047901286858     -1.01647057146331
