32
Coordinates from ORCA-job ./opt_b97-3c_parallel
  N   -5.56864090797882      0.55222866849235      0.86572669997949
  C   -4.43110108136088      0.60699884417273      0.62215693456800
  C   -3.05545952326157      0.62806578182168      0.31043282758020
  C   -2.44372627238715      1.88279737982178      0.27771692134357
  C   -1.14735269580254      2.24690527337660      0.02516457658453
  C   0.02227851997350      1.47269844560843     -0.10630156537743
  C   1.21883090840816      2.17936287985894     -0.25956013328961
  C   2.47440107040298      1.57714356741256     -0.24374353124822
  N   3.62477813526256      2.32309878583134     -0.42050448114887
  C   2.53220872028177      0.21163767805361      0.03150654210627
  C   3.61318690252819     -0.64685267470736      0.30923773073563
  N   4.93691156728980     -0.29575369758833      0.37875210924292
  C   3.09082470678052     -1.95612423543165      0.52042451544721
  C   1.72336843742166     -1.91104804493999      0.39987975954338
  C   1.31941000460001     -0.56457008575450      0.10340325692227
  C   0.05904283829675      0.00638402128861     -0.06689001379693
  C   -1.08759960335474     -0.82503757817710     -0.33451322074727
  C   -0.83316568777971     -2.09415215809975     -0.89914046484315
  N   -0.76155257683195     -3.14620452885105     -1.39546610922117
  C   -2.46772758585713     -0.60916037340900     -0.08464789196143
  N   -3.31357154254995     -1.65525072513309     -0.22644079729673
  H   -3.11799259503608      2.70651797094619      0.47615411599715
  H   -0.97679269074018      3.31620416529573      0.01695648010004
  H   1.15818549369504      3.25295369872845     -0.38674625112015
  H   4.35641546082642      1.85249568655623     -0.93000635679030
  H   3.47210364625764      3.25336342001724     -0.77506340113262
  H   5.54224399238864     -0.98227477332565      0.79786278342331
  H   5.12533427143142      0.63531229209780      0.71705296496932
  H   3.67876564335545     -2.82493934826673      0.77397150163065
  H   1.06787900795301     -2.74835509144414      0.55773246670110
  H   -4.30659266227637     -1.50848875786133     -0.20087442398065
  H   -2.98116668653291     -2.54028401937559     -0.56552865962602
