31
Coordinates from ORCA-job ./opt_b97-3c_parallel
  N   0.21678007573537      3.11022640517800      1.36386998254394
  C   0.59150322022709      2.10342786905418      0.89569142975482
  C   1.06773657265809      0.93677751873849      0.30387080298237
  C   2.43073991261513      1.00061519380439     -0.13489563395359
  N   2.97250753262759      2.23923186683135     -0.28472728614917
  N   3.27093513478664      0.03074838103001     -0.45605949296963
  C   3.07072405277334     -1.26996138156617     -0.20728415962020
  N   4.22324863250412     -2.00528924730044     -0.36145357906244
  C   1.93245446321411     -1.96044123001263      0.19757685068272
  C   0.59576373708378     -1.54655441359798      0.27692249510972
  C   -0.37118395541253     -2.55677994252645      0.49240423793788
  C   -1.72550420132032     -2.32004437051825      0.45246326004891
  C   -2.16361574392682     -1.03790708797385      0.17830442579378
  C   -3.44094096942675     -0.48936384324711     -0.11501681949540
  N   -4.62682618453370     -1.12934841720725     -0.11537858970708
  N   -3.37117214486838      0.80664435713738     -0.47610372860798
  C   -2.07031367532068      1.15447788052809     -0.40148485051642
  N   -1.71339227504764      2.37760767229595     -0.80903865452452
  C   -1.22782288951752      0.03131863198516      0.01363114040996
  C   0.14813652463770     -0.16682609182306      0.15883562591251
  H   3.97331625558690      2.27515371237059     -0.35539637458375
  H   2.49897631863794      3.04905887689189      0.07318326107471
  H   4.95537793251365     -1.52982084401977     -0.85964144391169
  H   4.13722554674258     -2.98714937033722     -0.55319371025384
  H   2.08470197859858     -3.02070407683685      0.36262897417441
  H   -0.01353095532936     -3.56227509462202      0.66883106970283
  H   -2.41838187597544     -3.14155704002702      0.59050619538804
  H   -5.45019294691410     -0.55721913797293     -0.18608969586111
  H   -4.72123917070697     -1.99028744247541      0.39052007370421
  H   -2.49097055004904      2.97832647199735     -1.03274214991443
  H   -0.92288730639332      2.83865389592156     -0.38028072258950
