32
Coordinates from ORCA-job ./opt_b97-3c_parallel
  N   -5.19291034893290     -1.53768427905607      0.72211656752950
  C   -4.12172705460310     -1.13986859348290      0.50171504700391
  C   -2.85027887476598     -0.59093373289105      0.21782065472379
  C   -1.79551789030129     -1.51271564817731      0.10901460382919
  C   -0.44229493962242     -1.38786187146056     -0.10367153765045
  C   0.32309915834406     -2.60209565668410     -0.24622872483324
  N   -0.31228708148959     -3.80792889270668     -0.43491955230068
  N   1.64238337063383     -2.66705906952259     -0.16115922492881
  C   2.32366834208283     -1.53033355972658      0.00520633317644
  C   3.69395237125582     -1.37737014863458      0.13226743098671
  C   3.95810860248498      0.00665308006287      0.19386625116862
  N   5.16149744268900      0.58760751966964      0.30191481152974
  C   2.72909446613274      0.74197687070778      0.10072059723311
  C   2.68444970476944      2.13006921650917      0.18085431498428
  N   2.70998710222032      3.29475323027729      0.25387700789586
  C   1.68551570513416     -0.20008488420123     -0.00645867766733
  C   0.29405154943001     -0.12098994797355     -0.09511747687712
  C   -0.30748311030793      1.13874733708295     -0.19994016321405
  C   -1.62378775834821      1.56797225687200     -0.22065904808156
  C   -1.82587337316755      2.95532207186970     -0.42691135129142
  N   -2.07363015356565      4.07921655119835     -0.59164239147002
  C   -2.82109283650913      0.80880156965209      0.01185459978733
  N   -3.97729392111395      1.48257854952778      0.04837718050594
  H   -2.13332066369951     -2.53004361860684      0.25522339368107
  H   0.34080358401051     -4.55933196281853     -0.58740311260987
  H   -1.09224259359407     -3.82787203912025     -1.06829946810039
  H   4.42189563474727     -2.17084240861939      0.15541897863088
  H   5.98134326838373      0.04064058026012      0.48450304319362
  H   5.23440608321929      1.58375702346231      0.41404673694494
  H   0.39492687438625      1.95458808470226     -0.29851634669822
  H   -3.99905098963012      2.48121702747832     -0.07095111793410
  H   -4.84597287767250      1.00721211644917      0.22549809745280
