27
Coordinates from ORCA-job ./opt_b97-3c_parallel
  N   2.74540634174236     -3.00123061980425     -0.09723978874953
  C   2.35952422176783     -1.90089419527242     -0.05957844941159
  C   1.98791108471493     -0.56022320927257     -0.02317432350514
  C   2.92427507049660      0.51541742750188     -0.07351073462915
  N   4.26279607484765      0.39270929639560     -0.08755379571555
  N   2.33330364481040      1.73216019275472     -0.07586131921401
  C   1.01278954135749      1.48200972455743     -0.03651721620223
  C   -0.00473289779446      2.41865385057219      0.04740232218855
  C   -1.33301887657532      2.02198639327394      0.08916581530392
  N   -2.33440572983974      2.98935093809839      0.13872606014740
  C   -1.68312799425267      0.64055533331806      0.00104798874941
  C   -3.00887355152597      0.32664639228404     -0.24173319089157
  C   -3.66219751790857     -0.90319616120937     -0.28584225430435
  C   -3.14764879113447     -2.15107750892313      0.00824229075705
  N   -1.90608060059648     -2.53819397603191      0.30291160719915
  C   -0.83608005726187     -1.75802478048094      0.27761170107534
  C   -0.61243883292672     -0.38289860304678      0.07213649534156
  C   0.71306514926858      0.06008340072891     -0.00366948498989
  H   4.80344360704531      1.20797539471052     -0.31303949826533
  H   4.67559801175688     -0.50526702896604     -0.26530344421500
  H   0.25636051764825      3.46833714774213      0.09873127610337
  H   -3.05855812120720      2.81984051981231      0.81743061748620
  H   -1.97987500984134      3.92665882489337      0.23293804744767
  H   -3.64587155338001      1.17603988768502     -0.45568665944126
  H   -4.71569866479674     -0.87543641826578     -0.53521233812690
  H   -3.85957205755636     -2.97238876294418     -0.00380068918176
  H   0.07315096153544     -2.32011240021285      0.46042669814380
