30
Coordinates from ORCA-job ./opt_b97-3c_parallel
  N   -5.56849948132215     -0.85210587063210     -0.14713504142560
  C   -4.43873947210159     -0.57291803945452     -0.10852233006517
  C   -3.05309280433876     -0.31814887197859     -0.05452869361055
  C   -2.64111163241851      1.00385847462242     -0.08262122349250
  C   -1.37500204111630      1.57268164183453     -0.03890618693000
  C   -1.38297675929366      2.99059730845276     -0.06946676997962
  N   -1.38063113903537      4.15303921512277     -0.09048324372771
  C   -0.09128510283669      0.93217086431117      0.01517443102035
  C   1.04067365609538      1.73562059098169      0.06213365287661
  C   2.35916477015440      1.24853205980970      0.07369317174021
  N   3.41397007963393      2.11874248442164      0.14689482803445
  C   2.53464332288268     -0.12612903920036     -0.02880082112466
  C   3.65114155290011     -0.98838815240750     -0.10291313450383
  N   4.96931291674119     -0.65849134029447     -0.18119122490704
  N   3.27261799858982     -2.30020379876802     -0.08037797634324
  C   1.93855948937875     -2.30129151297322     -0.02479498651758
  C   1.39606211491385     -0.98918759122101     -0.00804797794364
  C   0.06923966513593     -0.53753874701776      0.02139934964216
  N   -0.86523900465400     -1.49304705879153      0.07474734984976
  C   -2.18004263061305     -1.45614992365346      0.06168966222514
  N   -2.76723897165620     -2.66781038720162      0.16625468884115
  H   -3.44933008232654      1.72002891731574     -0.14801104631789
  H   0.90403286267031      2.80728777371650      0.10217041454471
  H   3.19147932135857      3.06734222659803      0.39880846725505
  H   4.24448005130000      1.77837069836806      0.60289258301071
  H   5.20148168351203      0.17225329138770     -0.70103748151154
  H   5.57052822366821     -1.44215964151823     -0.38384783596934
  H   1.38323641923301     -3.22514289930799     -0.00721773505737
  H   -2.17147851210618     -3.47317587813624      0.21773845683886
  H   -3.76400531954893     -2.78576199088596      0.15328965354808
