25
Coordinates from ORCA-job ./opt_b97-3c_parallel
  N   3.29611696061542     -2.23839011364932      0.01115251800637
  C   2.67036992457009     -1.02664173329665     -0.01141153951486
  C   3.50388108525551      0.11587598671031     -0.10129065641863
  C   3.08431365463220      1.42499588412683     -0.10065357518728
  N   1.88572677269722      1.98940140855177     -0.02660175136355
  C   0.69921329211342      1.35690286157008      0.01689886944604
  C   -0.41244965988251      2.22256300524697      0.08946087840759
  C   -1.72561567199368      1.79317050475749      0.07783939803462
  C   -1.98419701177771      0.43691092103970     -0.00338130781359
  C   -3.15018952335277     -0.36721858915676     -0.04335558192769
  N   -4.44342417709250      0.01215793370744      0.01130458002329
  N   -2.84196840434313     -1.70104912107060     -0.10519003135896
  C   -1.51050437431625     -1.77235393132974     -0.10735750510407
  C   -0.89470509806528     -0.49252985065900     -0.05230461968160
  C   0.45145401792429     -0.10969720185391     -0.01481450625601
  N   1.35369646972132     -1.10660647878844      0.01929087393753
  H   4.26651135098801     -2.29511338404398      0.25862825615320
  H   2.71819351113936     -3.02969998646826      0.23381641171224
  H   4.57233794538842     -0.05083355486101     -0.16809065726662
  H   3.88628702850998      2.15791931955496     -0.16594463541316
  H   -0.17949421042515      3.27607378033748      0.13421417975086
  H   -2.52324011921635      2.52543727607923      0.13218816174751
  H   -5.12763634983557     -0.69123777357038     -0.20734824053319
  H   -4.69276936840748      0.96207141878027     -0.19338155943232
  H   -1.00702382904684     -2.72513011261447     -0.15628447834773
