34
Coordinates from ORCA-job ./opt_b97-3c_parallel
  N   -5.61075007745546     -2.48624957902565     -0.02179217298654
  C   -4.57728219541869     -1.94859251331288     -0.01066315211218
  C   -3.36350720490083     -1.23548405866331     -0.00274428946720
  C   -2.18565149923924     -1.98976083232589      0.08663352157813
  N   -0.91585938822273     -1.68256548754577      0.10907461722911
  C   -0.31957156900743     -0.45128369586500      0.05513817493014
  C   -0.97368031749165      0.85543037554123     -0.00141179187212
  C   -2.35140683595159      1.06426327020487     -0.06763211831650
  C   -3.43642100020185      0.18613529063996     -0.07658623318912
  N   -4.66599540387637      0.73649701534856     -0.16634982799166
  C   -0.13669662208981      2.01808043028541      0.03104547988842
  C   -0.72021328987853      3.29677566132353      0.08498972517312
  N   -1.14892298986216      4.37859649621087      0.13553625353198
  C   1.28004615632491      1.97155151841141      0.05135758291610
  N   2.02534310687891      3.12843168319014      0.08510866273736
  C   1.88003994101992      0.72338325286890      0.00086153901980
  C   3.23168708777192      0.32115755316034     -0.08656933735916
  N   4.31719910145436      1.12924590805497     -0.20140133890353
  C   3.28562304556760     -1.09927482186966     -0.01866026601107
  C   4.44323357294682     -1.87082887647012     -0.10182388709828
  N   5.41731520801343     -2.50633037492742     -0.17569140180723
  C   1.95954974358992     -1.58730398660749      0.06393672834064
  N   1.56430428353077     -2.85198011470450      0.11860620052122
  C   1.06477170886623     -0.45614008375241      0.05672648377697
  H   -2.36562280508661     -3.06033284513373      0.14857958414956
  H   -2.64284923191887      2.10504952423045     -0.12589819291810
  H   -4.78294758343495      1.73194241717716     -0.17886154194035
  H   -5.49335875128331      0.16683826995562     -0.14755417130206
  H   2.84762626444937      3.08691741909373      0.66531543225562
  H   1.50132419283633      3.97728490383520      0.23543152604573
  H   4.18157287779115      2.00008999498171     -0.68869717432542
  H   5.18927755240676      0.67530215791144     -0.42253321739696
  H   0.55612004172209     -2.99014147124488      0.14397190400995
  H   2.22037097314115     -3.61280510786987      0.09698715248853
