24
Coordinates from ORCA-job ./opt_b97-3c_parallel
  N   -3.43042755700888      1.91836869618980     -0.69628039899267
  C   -2.67837852595385      0.93824605831422     -0.14811898130349
  N   -3.41675869477888     -0.07392964392464      0.38276996077441
  C   -2.89486288302026     -1.25635030488619      0.60596543296719
  N   -1.76078884649587     -1.84315545383366      0.23244065384417
  C   -0.63193584707471     -1.23729917550886     -0.12268754944508
  N   0.36265625136691     -2.04902985607377     -0.52357553223325
  C   1.61353663348120     -1.59926955106603     -0.50265535992138
  C   1.95578623074812     -0.34705299334630     -0.02974733566184
  C   3.19189585450353      0.34354767698873      0.10488745210603
  N   4.43006321980233     -0.17071366555107     -0.08479345178354
  C   2.89954422044330      1.70244786694349      0.41252355578252
  C   1.52775448777017      1.86142899989940      0.45699314933389
  C   0.90733054770640      0.60702443165094      0.20839387203410
  C   -0.41711786295965      0.23528230038791      0.02249782412826
  N   -1.37638668609641      1.16111943859294     -0.12315521565540
  H   -4.42088287254872      1.89748999420702     -0.53836355707536
  H   -2.98694663166031      2.78822251558198     -0.92669100260492
  H   -3.55711697152845     -1.92680277849329      1.14916738451969
  H   2.36375614679706     -2.29178302526175     -0.87677172337675
  H   4.55447443515239     -1.16621736784674     -0.05283038064484
  H   5.22487275132439      0.36634341691811      0.21126908218292
  H   3.63791129276551      2.47220600311666      0.57760178650686
  H   1.00271586166450      2.78151814850085      0.65672007531865
