27
Coordinates from ORCA-job ./opt_b97-3c_parallel
  N   5.22991042205027      1.15623632234324      0.38359648841569
  C   4.22095223791894      0.59479661441328      0.23541690702633
  C   2.96462079355737     -0.00319940687782      0.08244741842598
  C   2.67246968299212     -1.34544883657369     -0.20623585427541
  C   1.27924867236884     -1.49077337074189     -0.20558117712615
  C   0.44097190736047     -2.56162630976393     -0.46847290238120
  N   -0.87630954747553     -2.50492258608160     -0.31715897395270
  C   -1.46925366350372     -1.34454309961903      0.02529798070347
  N   -2.72602234796858     -1.47490927289648      0.44143868870377
  C   -3.65209427491327     -0.54960812606443      0.62039517257700
  C   -3.71847511013989      0.77370685788809      0.23663429847647
  C   -2.65126408145625      1.56578914212445     -0.21795826804083
  N   -2.93289632458315      2.86376202403977     -0.55779000543560
  C   -1.30843246226075      1.17908974523224     -0.22599400332602
  C   -0.71753455648997     -0.06575335528829      0.00198778784557
  C   0.67789970757477     -0.20710740099311      0.06350921415748
  C   1.73661302205831      0.71309953548423      0.24561013271559
  N   1.65631121119770      2.04861962626246      0.50952065236409
  H   3.40271440588949     -2.11799824134932     -0.38167267288580
  H   0.84353661837271     -3.51789020535900     -0.78800883917536
  H   -4.54865888229184     -0.93521822688613      1.10052641593036
  H   -4.67885321908015      1.26094359797352      0.35801804489735
  H   -3.88133751380395      3.08919922794281     -0.79815495451049
  H   -2.24293149634105      3.37633732214850     -1.07743125692861
  H   -0.61691397417667      1.96352195333699     -0.51155583905235
  H   0.83826215818380      2.35814263300764      1.00935114003668
  H   2.50772297546169      2.48048237389715      0.83509084861546
