30
Coordinates from ORCA-job ./opt_b97-3c_parallel
  N   -3.46035651157962     -2.77821799359551      0.50565812992565
  C   -2.76507112012480     -1.85721936989017      0.34443569286980
  C   -1.95802324256813     -0.72028549347093      0.14432428639481
  C   -2.63336312888027      0.51599695407850      0.21337073614088
  N   -3.95332797390857      0.49908137549960      0.54388451764574
  C   -2.08606544559812      1.76461445839689     -0.08991209710662
  C   -0.76875898239056      2.15048334912984     -0.20119559699545
  N   -0.55962156782850      3.47643004561126     -0.49995888028086
  C   0.42160515542778      1.36570806411416      0.04503721498072
  C   1.58573634066345      2.10470050551943      0.35714553225234
  C   2.83980483488834      1.54351619607334      0.45305506251702
  C   2.99541686368615      0.19418959250494      0.17928209550541
  C   4.08518060294255     -0.69300655999887      0.14116842444206
  C   3.54510748065167     -1.92992558396193     -0.17928143273529
  N   2.19589570133095     -1.89026059893137     -0.34254119976085
  C   1.82385575495478     -0.60039287997162     -0.12599691944122
  C   0.51590770615564     -0.05290679344667     -0.13044055222486
  C   -0.60522899174478     -0.97709033701832     -0.23407679052672
  N   -0.30928198025312     -2.22419738515391     -0.59116350325859
  H   -4.48978434091008      1.34162682769161      0.46539884586248
  H   -4.46926103064143     -0.36328549815982      0.53658917559256
  H   -2.81550184200012      2.55502252025738     -0.23002815865366
  H   0.29066329510424      3.70460245782709     -0.98282051409668
  H   -1.35709813828232      4.00024719810781     -0.81390279433443
  H   1.47801413562736      3.15027754860282      0.60054190877457
  H   3.68453254320672      2.15885758988450      0.73718352143883
  H   5.12208161982358     -0.46072695173416      0.32006288739368
  H   4.07304721325529     -2.86290574429575     -0.31131812964165
  H   -1.02145512790485     -2.93488451459687     -0.55240424223749
  H   0.70628660469669     -2.48548148637346     -0.61833564894200
