29
Coordinates from ORCA-job ./opt_b97-3c_parallel
  N   -4.18011472617783     -1.21726560479618      0.38798262304894
  C   -2.89831110330145     -0.73210341522655      0.18649326202117
  C   -2.80175796364658      0.64151896442581     -0.06864759477024
  C   -1.68117851140459      1.42945924914769     -0.19103599197915
  N   -1.92002100607110      2.76521930814820     -0.46413554275131
  C   -0.29433111601289      1.06928582914370      0.02399706910154
  C   0.57772541299788      2.15268670499017      0.29267313226043
  C   1.94487481308072      2.02734294441369      0.37813709135297
  C   2.52533353244045      0.78893071520971      0.14798133467504
  C   3.84211729109682      0.29737811922453      0.13114216940848
  C   3.72605803995789     -1.06199578094630     -0.12553537338678
  N   2.43725721329616     -1.46405688697071     -0.26907925171437
  C   1.66998974690349     -0.34860475264809     -0.10483284548611
  C   0.25618823673496     -0.24895216574958     -0.11791110678671
  C   -0.51669312068636     -1.48366800314632     -0.19195600767580
  N   0.16719094426939     -2.59940501543086     -0.48178768360779
  C   -1.87206529116337     -1.65330993636767      0.11930834656545
  H   -4.24392353592181     -2.14111613055977      0.77917353975229
  H   -4.82933879960201     -0.57677546046402      0.81108963229591
  H   -3.75158726627044      1.14617343960132     -0.21058830070756
  H   -2.84851745775099      2.97966886646034     -0.78376518531308
  H   -1.20919399706909      3.23683294340947     -0.99538318013093
  H   0.14482733877714      3.11490064791746      0.51648580776511
  H   2.54934383462438      2.89111342519913      0.62748070735115
  H   4.75012358435247      0.85775318140046      0.28369763880116
  H   4.52599537846790     -1.78177377366182     -0.22317937109217
  H   -0.30136619844423     -3.48571383418750     -0.41700011261833
  H   1.20981285115319     -2.54026235958538     -0.48516730631552
  H   -2.17461977383031     -2.68919859455074      0.23704828433630
