32
Coordinates from ORCA-job ./opt_b97-3c_parallel
  N   -5.51123084831938     -1.56110526072580     -0.70305812669137
  C   -4.46935443018518     -1.10591600072942     -0.45949365625079
  C   -3.23493145072862     -0.47592059397206     -0.17176357672919
  C   -2.15152437603262     -1.30041334642233      0.04842258214103
  C   -0.77907631223436     -1.04995558038553      0.20371240625018
  C   0.02275079526950     -2.21143446294938      0.20460934873631
  C   1.40412005411553     -2.17175676239985      0.15585217877591
  C   2.15763292923276     -3.37120111315712      0.16110206227710
  N   2.74732751094481     -4.36990408661604      0.17034678381636
  C   2.03477112521772     -0.92146261195233      0.03397576660510
  N   3.34208714895192     -0.69139136573452     -0.12707484855803
  C   3.45824256320850      0.64959899863024     -0.25314607525335
  N   4.65730744429240      1.22102957624307     -0.45517293009716
  C   2.21033754088611      1.32982445076791     -0.13551834541677
  C   2.05269745437332      2.68390159876903     -0.41366371746119
  N   1.96540504280232      3.82701577458436     -0.63455379729160
  C   1.24026149974396      0.29634789426042      0.06299307502257
  C   -0.14399323049046      0.24582029695114      0.25204245117540
  C   -0.87915293882766      1.44180963149212      0.62043575399697
  N   -0.18983663398795      2.36881311059252      1.30680035842685
  C   -2.20832620521103      1.75070032697434      0.33694027229301
  C   -3.25782696317147      0.95794213009045     -0.10643766073461
  N   -4.42331219017080      1.56559673656958     -0.41354632759819
  H   -2.39936731989410     -2.35322600515043      0.01330271044194
  H   -0.46568862600276     -3.17426877828727      0.20756524264414
  H   5.41621289823223      0.61811505135783     -0.71930290098191
  H   4.70591616684025      2.18160615102788     -0.74410356029277
  H   0.79264841108745      2.24775950694316      1.47253229217243
  H   -0.53900323705801      3.30490560763676      1.40597297105217
  H   -2.48066655168139      2.77972826557717      0.54436377302104
  H   -4.51864894842520      2.56074922659375     -0.34331814043213
  H   -5.24821723727636      1.03402060081905     -0.62950130475875
