29
Coordinates from ORCA-job ./opt_b97-3c_parallel
  N   5.49404084219564     -0.15078627342186      0.00634937796235
  C   4.33921587981535     -0.30713080630791      0.02687626654903
  C   2.93737861731828     -0.43380977979765      0.04104986118942
  C   2.40774074977964     -1.72984939907973      0.06865674368763
  C   1.11038043046069     -2.16181492182177      0.05557633725195
  C   -0.09759094167916     -1.42746674630233      0.02405458524222
  C   -1.28650535178475     -2.15543796488459      0.01072221894055
  C   -2.56980741671668     -1.58911474071385      0.00155133973780
  N   -3.67512261093235     -2.39153609588657      0.03685374943379
  C   -2.64949681124574     -0.19517333223608      0.02679256662581
  C   -3.69512164469725      0.74356236048010      0.06441556357352
  N   -3.25092110100076      2.01586312431721      0.09048432477515
  C   -1.89892953893898      1.93472873885644      0.06461007716019
  N   -1.11201475110273      3.01249320025173      0.07201683266247
  C   -1.44289917955448      0.57488224869256      0.02303339418740
  C   -0.15757618906397      0.04382512120139      0.01589712661388
  N   0.85855497142079      0.93569297432705     -0.00614618476265
  C   2.17084195962412      0.77241558352535     -0.00704960551996
  N   2.87284562105140      1.94153172812715     -0.02285114857045
  H   3.15418662930632     -2.51386889568941      0.09473506195436
  H   0.98701562877823     -3.23750439378956      0.07446252470061
  H   -1.20776983178566     -3.23612438119956      0.01430043628017
  H   -4.55303411942200     -1.98934772728220     -0.23751914514162
  H   -3.56102560965830     -3.35098317307253     -0.23795178540713
  H   -4.75853276334224      0.55033059738244      0.08780386090440
  H   -1.51331227629907      3.91643514057226      0.24813742646961
  H   -0.12278713957981      2.83513380167242      0.17016886533799
  H   3.85882607426340      1.92794023701083     -0.21772379126520
  H   2.36842917489004      2.76299008966868     -0.30037662517330
