29
Coordinates from ORCA-job ./opt_b97-3c_parallel
  N   5.10857993155248     -0.72750125830420      0.08483545034924
  C   3.95735342878885     -0.54881110601965      0.05047398189434
  C   2.57182875420030     -0.32116282745712      0.01175678830250
  C   2.14887022269021      1.01802502737146      0.02470984091017
  N   3.09073709903461      1.98734811694598      0.07917593234425
  C   0.81474819060905      1.48205638937320     -0.01234195198060
  C   -0.39864193738749      0.83702996887289     -0.03126678582515
  C   -1.58427338371148      1.65985194104542     -0.04732334405693
  C   -1.45261914076883      3.06500433745914     -0.07316846788573
  N   -1.32403341410026      4.22093746799651     -0.09267256546093
  C   -2.86134082815952      1.11576811941500     -0.02310352245938
  C   -3.02705155646049     -0.25626720308145      0.01200376097837
  C   -4.17400951853680     -1.06678544206248      0.03316372645917
  C   -3.75582755961698     -2.41239149080270      0.04755632020150
  C   -2.36625773081796     -2.45690897000569      0.03386195819629
  C   -1.87754420697743     -1.12248049659710      0.01401829308160
  C   -0.56740074613470     -0.63784877606186     -0.01949554057168
  N   0.40313590583414     -1.55458022198480     -0.04622470675064
  C   1.71489635265472     -1.46984684940672     -0.05851681462111
  N   2.33183783813898     -2.67461645183651     -0.16043312161647
  H   4.07114342191004      1.77004472727392      0.07569885604795
  H   2.82884291548374      2.95444241708698      0.06826984439334
  H   0.74658864847456      2.56273352374128     -0.01243435414122
  H   -3.71495489140474      1.78041517782602     -0.03091264744135
  H   -5.19464621579277     -0.71591937388245      0.03348520610154
  H   -4.41097704494835     -3.26926734800581      0.06492878284298
  H   -1.75183329891341     -3.34159140631826      0.03869855006561
  H   1.74607628143763     -3.48544976091569     -0.08175500661633
  H   3.32191803802187     -2.78091029286534     -0.03468602174133
