30
Coordinates from ORCA-job ./opt_b97-3c_parallel
  N   -2.57366531231634     -4.07483010015060      0.54717434754546
  C   -1.96506180215643     -3.09972059926763      0.38636144637669
  C   -1.17560805312705     -1.94300879346741      0.18275657673708
  C   0.21303749476352     -2.06584008600909      0.07393433709896
  C   1.05812091271009     -0.96988831461583     -0.08702406547176
  C   2.45913442374863     -1.23736469509158     -0.32868682095584
  N   2.77484255413346     -2.44154315971647     -0.85335964871462
  N   3.52378308370099     -0.51133644836111     -0.02678315417844
  C   3.59550211274070      0.77827760160276      0.24554014432409
  N   4.79823430360407      1.19791453652836      0.69986305020084
  C   2.60518793523095      1.76928583325875      0.01458608026940
  C   1.27347591642841      1.55597498532935     -0.15903270630842
  C   0.50725730121869      0.36532468413399     -0.12056790039949
  C   -0.89543838635236      0.48523777998614     -0.08488340379349
  C   -1.80104333416994      1.57203975354849     -0.12446764877062
  C   -1.57703196109578      2.93641591306999     -0.27638645635119
  N   -1.43451631357066      4.08787480906927     -0.40424213837455
  C   -3.09900172234256      0.98235237982851      0.00401181677261
  N   -4.26567257353810      1.65263369796338      0.04464701953724
  N   -3.05802576233884     -0.35793689149462      0.12707320155346
  C   -1.75333402697057     -0.67603715971326      0.07681279784582
  H   0.63141341837196     -3.05511384258438      0.17585953887166
  H   3.74664549521006     -2.63208177355732     -1.02070314052005
  H   2.09078936358247     -2.98626106277459     -1.34251701089473
  H   4.91218219953514      2.11994191759240      1.07602910518049
  H   5.49357191737278      0.50640034708435      0.91573470050135
  H   2.94130585626597      2.79836191338383      0.02907000277085
  H   0.69434801871542      2.46033810547095     -0.27909865980532
  H   -5.10880701599304      1.11446612159945     -0.04482921711791
  H   -4.29478834376214      2.61228914825404     -0.24862572532944
