29
Coordinates from ORCA-job ./opt_b97-3c_parallel
  N   2.27737482230779      3.42445694779595      0.50525298331146
  C   2.32880923995608      2.26946200086817      0.34708719334728
  C   2.37277404861448      0.89161598168278      0.13132050102192
  C   3.52924822509261      0.09575167898298      0.26356044204825
  N   3.29231095922637     -1.22178373969021      0.18926907838283
  C   1.95094395144672     -1.33514835825153      0.03506464619277
  C   1.21582773154518     -2.51040278858040      0.00569206920867
  C   -0.16309376643612     -2.46622596985384     -0.04298963993880
  N   -0.89404671310652     -3.66233674144611     -0.01042249862892
  C   -0.84789650967389     -1.21114631316891     -0.15129116789090
  C   -2.25754115931046     -1.28020551783146     -0.24717693105490
  N   -3.20120485086533     -0.42030106587545      0.02057716998476
  C   -3.03335781100112      0.89328817615987      0.26757539236442
  N   -4.08099942116740      1.45966967227583      0.90746988360798
  C   -1.99260224629724      1.69406014743144     -0.19585719589271
  C   -0.72180105179136      1.27345275381003     -0.57531426190746
  N   0.01905520027335      2.11973743546294     -1.30645411459790
  C   -0.09150291535273      0.01411805689995     -0.20101874600256
  C   1.29293095972249     -0.04834171379482     -0.03160937410737
  H   4.52575977344165      0.47439044060225      0.43868286966321
  H   1.73660925405823     -3.45573669338396      0.09230406315320
  H   -0.29902986135830     -4.46469224821294      0.12075226047235
  H   -1.63516580242717     -3.68356025572225      0.67172806919942
  H   -2.64594770717399     -2.24948263782673     -0.54166813553120
  H   -4.92825735824293      0.92742249611541      0.99055282078213
  H   -4.11466859751479      2.44630953592550      1.08059569118972
  H   -2.20973230309517      2.74850043362336     -0.32550173204342
  H   -0.23187239549105      3.09031785158639     -1.37235383215902
  H   0.98686580242076      1.91383223591564     -1.47694486927522
