32
Coordinates from ORCA-job ./opt_b97-3c_parallel
  N   -5.25869228814807      1.14846450846973      1.00378822618753
  C   -4.23405556741840      0.67961633413766      0.70463424784158
  C   -3.01340023834097      0.11367943278423      0.34361943105912
  C   -2.82708793582152     -1.20530276075373     -0.14075333316637
  N   -3.81043008138531     -2.10468926017814     -0.29859419216079
  C   -1.44183029071924     -1.39408589493131     -0.37092013061679
  C   -0.71084427664758     -2.46447451965570     -0.84543484020335
  N   0.61030055950100     -2.49510058695541     -0.80463206288798
  C   1.29481003997670     -1.43892462572080     -0.30456950438462
  N   2.52134365170522     -1.73516098167721      0.08951024167332
  C   3.48038668063854     -0.93940673685382      0.55602844137139
  N   4.44313318411715     -1.62798113967305      1.23849387958680
  C   3.65716197606411      0.43970218111165      0.41339822529574
  C   2.73960007527327      1.35760110201631     -0.07595207521794
  N   3.17366828972699      2.64622777450682     -0.21124713239128
  C   1.36773509659434      1.09907456536249     -0.37455859311694
  C   0.67678007266997      2.16771931931654     -0.95030000375975
  N   0.11861037627908      3.09398806259303     -1.39645757097051
  C   0.64020999369921     -0.12228205608336     -0.18894923302548
  C   -0.74719765988889     -0.17384149005238     -0.05570812732517
  C   -1.75388557570120      0.76892608814249      0.38086259097996
  N   -1.59473523012168      2.00614401767823      0.87261670892014
  H   -4.76921453292261     -1.81731670957830     -0.21363232992468
  H   -3.63677815839675     -2.97488478860903     -0.76461065509755
  H   -1.19098093959571     -3.34849473550011     -1.25735073531481
  H   4.44488269173020     -2.62341187313511      1.10232181153245
  H   5.32525759130697     -1.19327596370643      1.43693097050897
  H   4.61070874731718      0.84298177311753      0.73327545388078
  H   4.16197573784504      2.80038170856968     -0.28839733624004
  H   2.59946607972991      3.30271160553379     -0.71179286573549
  H   -0.84897651757471      2.58628373420613      0.52174180517301
  H   -2.43616357529064      2.51223413401782      1.09993706812981
