31
Coordinates from ORCA-job ./opt_b97-3c_parallel
  N   5.20810464570363      1.39056610953846      0.15506956552203
  C   4.19967457240468      0.80631367911489      0.10000152958250
  C   3.01973998476412      0.07086288270407      0.02021279326241
  C   2.94528592120365     -1.33986584374483     -0.16807682529351
  N   4.03393271282163     -2.16498453276898     -0.22037872652777
  C   1.59835512612151     -1.72782214292491     -0.22340536775596
  C   0.79879468300753     -0.58123324971858     -0.08351332255389
  C   1.69364522079037      0.55306874239743      0.06751435958337
  C   1.17064898896142      1.81505185673927      0.25222358814394
  C   -0.20215914645838      2.00616392824030      0.21504742891128
  C   -1.11977034925613      0.95787876376136      0.04161769236174
  C   -2.50139161049591      1.30388350056729     -0.13998483187158
  N   -2.77807141630641      2.63870022541234     -0.33261414053315
  C   -3.63519765957143      0.49198670347894     -0.09000615192005
  C   -3.77481849509213     -0.87694400888349      0.09380418138805
  N   -5.05253706741805     -1.38314386221027      0.14061721705039
  C   -2.72425489638651     -1.81046443227158      0.13398267682702
  C   -1.38256276287554     -1.57558875680788      0.03042355951998
  C   -0.60875911376137     -0.40163041756625     -0.03145400653888
  H   4.91400764270335     -1.72505741715506     -0.43314878416637
  H   3.90811654049528     -3.05140569254400     -0.67630238568216
  H   1.26999814126660     -2.74438801679404     -0.37308522241029
  H   1.82658546007977      2.65975228550717      0.41983658734994
  H   -0.56259908199147      3.00570748678890      0.40286275640694
  H   -3.70925402331723      2.86573600744115     -0.63213039524275
  H   -2.07029807330346      3.18876676793603     -0.78475938575265
  H   -4.57288421468022      1.02359516417910     -0.21910804753294
  H   -5.16309518801671     -2.31435436941826      0.50010267066613
  H   -5.79315978433638     -0.75778656538028      0.40435223182562
  H   -3.01902025452083     -2.84936501875099      0.22775337379860
  H   -0.78823378723536     -2.47887921726715      0.05472199098192
