26
Coordinates from ORCA-job ./opt_b97-3c_parallel
  N   1.90792472228217      3.38207592278466      0.34331087529014
  C   2.06003634366090      2.22737929128360      0.29022255183936
  C   2.22671653840382      0.84431966989442      0.19705187467840
  C   3.43950507262437      0.15204349689973      0.40188876865064
  N   3.31236641043552     -1.18279641332936      0.36529244982995
  C   1.99667099579066     -1.41373970506591      0.15721268580624
  C   1.36073900824465     -2.64665120456535      0.03747977277076
  C   -0.00056286607320     -2.68101769581889     -0.14472494394594
  C   -0.77930996973015     -1.50289276694198     -0.21178136656049
  C   -2.18520631228870     -1.69625228488226     -0.28649341717609
  N   -3.18624421913888     -0.90200372102689     -0.03533978426982
  C   -3.02424122129241      0.41578111225765      0.25208626448067
  N   -3.99936503360412      0.93253624437714      1.01484225414541
  N   -2.12331100388254      1.26114132384479     -0.21669643059389
  C   -0.89568782413894      0.95319980578750     -0.59591935958224
  N   -0.29515706923703      1.83430015616568     -1.39565185013702
  C   -0.13613935037030     -0.22592524001468     -0.19437631346172
  C   1.23990044837909     -0.17874625897670      0.03084824469417
  H   4.39566810633250      0.61671849888495      0.59299017685029
  H   1.94341978393274     -3.55513172801355      0.10090864196536
  H   -0.51053663522846     -3.63292376772794     -0.20442703255749
  H   -2.48946727137175     -2.71445613978944     -0.51714545335665
  H   -4.02696984789676      1.92130602380701      1.18288641517222
  H   -4.79535981550572      0.36443957651039      1.23815695075974
  H   -0.70756858187516      2.74508421703624     -1.50413129387800
  H   0.68083190044749      1.74394064481895     -1.61201616821402
