27
Coordinates from ORCA-job ./opt_b97-3c_parallel
  N   3.82200557874677     -1.72190765933700     -0.92811482437537
  C   2.91883753720056     -0.92978144263310     -0.30210656225146
  N   3.37623076429075      0.27788185090891      0.02329028343741
  C   2.55675590121733      1.27450218234352      0.36756023091175
  N   3.18029234431959      2.33921408946328      0.93161927031387
  N   1.24480909754997      1.45052657087937      0.19148864484503
  C   0.33948115665619      0.49681625227894      0.01018010844742
  C   0.58470898159844     -0.97968183416527      0.16586418816387
  N   1.75557234998715     -1.54997897690272     -0.05881163336218
  N   -0.41563348381070     -1.81299259669021      0.48415388031367
  C   -1.68405055176386     -1.41498033879199      0.38285981947480
  N   -2.63397944127475     -2.31665023713167      0.76973644668488
  C   -2.02444552425016     -0.15964832625494     -0.13498984000809
  C   -3.21847109685982      0.52817019681829     -0.39633774355425
  N   -4.49878712772322      0.04399321506186     -0.37667711197758
  N   -2.98749544592075      1.85187632343828     -0.65702178421697
  C   -1.66557856878800      2.02827429819616     -0.56088462077513
  C   -0.98961680304257      0.82102176386689     -0.26093757803493
  H   4.77505083430787     -1.41179081791292     -0.97027265052386
  H   3.62415426793097     -2.70401699752585     -0.97812898907539
  H   4.18202294311518      2.37285410691433      0.88724886175385
  H   2.66924246951278      3.20074616961179      0.98482401458487
  H   -3.50372829291882     -1.94350358046836      1.11310464648695
  H   -2.27017732843034     -3.10048356988739      1.28746932135825
  H   -4.61892461751067     -0.89316119430064     -0.72679362989004
  H   -5.17026806139578      0.69372662441343     -0.75555138422030
  H   -1.22019798344333      2.99748266870801     -0.72229276821140
