31
Coordinates from ORCA-job ./opt_b97-3c_parallel
  N   -2.69894099330074      3.71029013263716      0.09561876883574
  C   -1.99430505599420      2.78705141800601      0.09016478092474
  C   -1.14481783791276      1.65331775781927      0.08990299148717
  C   0.23140070507101      1.82816023050832      0.05195321240995
  C   1.14999293841047      0.76545462666551      0.01868146214471
  C   2.53099714316274      1.16307141491847     -0.03292559932425
  N   2.82671992891634      2.48423418367560      0.21605386882977
  C   3.62398526431311      0.39787940132283     -0.44601092016522
  C   3.71920081324508     -0.97016688989172     -0.54775967594988
  C   2.79722017011870     -1.92963115765147     -0.19474549514986
  C   1.46497294752566     -1.77316884493588      0.19463585368789
  N   0.87587733248080     -2.90250450658609      0.67603205135468
  C   0.63088579919776     -0.60213856936257      0.03773286721456
  C   -0.77247255412872     -0.78114516348803      0.01111237817302
  C   -1.61126189503027     -1.91545265518013     -0.10046349866240
  C   -2.95087150104213     -1.47974915152227     -0.11367083551399
  N   -4.04874066097366     -2.30530948536087     -0.19122067386256
  C   -2.99658027701326     -0.07922949529468      0.02224422359912
  C   -1.68449955512439      0.36796636176886      0.07073593283210
  H   0.57913295257663      2.84014560937645     -0.06349821028258
  H   2.24044398784580      2.97794390586893      0.86386820451694
  H   3.80144571672174      2.70162829938959      0.32024612287589
  H   4.53922225827614      0.94973854698694     -0.62683243044239
  H   4.68826286488418     -1.34741855333962     -0.85277258286939
  H   3.16016250167445     -2.95107587659415     -0.19022715208072
  H   1.48036201953526     -3.63402231719483      1.00346391749000
  H   -0.00290653527039     -2.80686851310746      1.15944138724314
  H   -1.32113254824479     -2.93323164731451     -0.29599128268827
  H   -4.89163078251918     -1.87205579881750     -0.52870801051990
  H   -3.88928008918444     -3.20506533676318     -0.61209351097486
  H   -3.88109210291684      0.53716942106093      0.04693029566685
