25
Coordinates from ORCA-job ./opt_b97-3c_parallel
  N   -0.82311521248254     -2.93424728680372     -0.29336272858496
  C   -0.05691962363130     -1.73994365072558     -0.21049642662940
  C   1.33389388966215     -1.84072564356788     -0.24330457009825
  C   2.13425575214531     -0.72753056163977     -0.07633753329554
  C   3.51316748113201     -0.47594886243761     -0.04374351063431
  C   3.62383076456385      0.90715294569096      0.11215446093026
  N   2.42885112012077      1.55210689841229      0.17178953069772
  C   1.50460575639203      0.57713945413607      0.07005585898452
  C   0.10355193136937      0.71109992157461      0.04249632832108
  C   -0.39882051866499      2.02695608682057      0.18449032191829
  N   -1.57930859522238      2.53899921381229     -0.08567498012053
  C   -2.64664239631378      1.80559863691801     -0.40654415932266
  N   -2.94456339952843      0.56137314456583     -0.13701050742454
  C   -2.10652669266364     -0.40751491322238      0.25485225594768
  N   -2.69694071291511     -1.40128763375914      0.93337003050994
  C   -0.69700581341843     -0.49251019233351     -0.04637465263303
  H   -0.22754790783807     -3.73957064445886     -0.41243634529318
  H   -1.48593564914515     -2.91620986632782     -1.05691691241756
  H   1.77910506654753     -2.81887499218786     -0.39561542351210
  H   4.31566117973142     -1.19091326850762     -0.12482156169742
  H   4.54061411241834      1.47513678995476      0.18599347286565
  H   0.35210890811706      2.74914466140821      0.48540257785414
  H   -3.44189994439793      2.36354530876223     -0.89222771240307
  H   -3.70155186447032     -1.39137940878528      0.97763897952818
  H   -2.20345424250773     -2.27900509509874      1.04087554580905
