32
Coordinates from ORCA-job ./opt_b97-3c_parallel
  N   -5.74604125240143      0.69717385661048     -0.24478275323315
  C   -4.59289883084819      0.56835526804200     -0.15854453428943
  C   -3.20476893683172      0.32578367510085     -0.06969298120594
  C   -2.38539810130671      1.41109155168338      0.20831685706167
  C   -1.00578633934000      1.54686084089823      0.29591150816268
  C   -0.63849593661774      2.86617257119521      0.67234222556137
  N   -0.41767205029163      3.95737625867191      1.00448981887257
  C   0.03921341141400      0.58523736320545      0.07751480569869
  C   -0.22263859865595     -0.85739082009196      0.06786557574225
  C   -1.46245558855485     -1.47570129088998     -0.09136760156595
  C   -2.77625718672583     -1.02181730367784     -0.21927252359356
  N   -3.71964425819580     -1.95260831389176     -0.49001843623075
  C   0.89311055394237     -1.74666978847152      0.21647834734866
  C   0.68128334823767     -3.12269074150778      0.41090691901805
  N   0.57574081586749     -4.27049063785009      0.57894004934029
  C   2.23655288036669     -1.31542557335942      0.17465960563958
  N   3.26843866513073     -2.19767397934153      0.30899124194760
  C   2.46060520358388      0.03502687898147     -0.06281181252280
  C   3.61615167971615      0.78427062537136     -0.32301213980050
  N   4.90197970306001      0.35936218642841     -0.45264802666482
  N   3.32601313313954      2.11741829392101     -0.45198238916739
  C   2.01492670433552      2.24043899249407     -0.29519850098157
  C   1.37168044171659      0.97585534261560     -0.06604733328528
  H   -2.92649590927416      2.33136585226185      0.38173612619083
  H   -1.39390419553831     -2.55335779378615     -0.16841930748973
  H   -3.48606244636845     -2.92775865078493     -0.48361174133120
  H   -4.69558714791897     -1.71290759788542     -0.48808196429926
  H   3.03501878616129     -3.13160889180236      0.60798673327549
  H   4.11017270754407     -1.83893231974640      0.72764347956046
  H   5.04504775935155     -0.54931616783684     -0.86259479432770
  H   5.52743416830362      1.06716555656796     -0.80489936195366
  H   1.55496280150061      3.20799657477709     -0.38220982577533
