23
Coordinates from ORCA-job ./opt_b97-3c_parallel
  N   0.07458111634691     -3.51734150832541     -0.34392703388886
  C   0.47519907761240     -2.43520899861332     -0.21807677634360
  C   1.07530248667588     -1.15323940209822     -0.07800645644913
  C   2.46713033442578     -1.26188711364531     -0.02684350276931
  C   3.44508748750899     -0.29214161155246      0.07986197387327
  C   3.25302571712760      1.07792442010147      0.10208270508459
  C   2.06878188905222      1.77719778694842      0.01853781807246
  C   0.71953045273767      1.37555481096669     -0.05317727934999
  N   -0.10030141881825      2.44882957221824     -0.14206231322741
  C   -1.41655554278547      2.28573552450873     -0.14219597791255
  C   -2.01170437605576      1.05032792315360     -0.02020191435661
  C   -3.33598271468587      0.60927252999283      0.06674056481126
  N   -3.39093332327767     -0.73312691234482      0.19942725264922
  C   -2.12591273281242     -1.19393459270476      0.18664994803276
  C   -1.18295985759581     -0.13841662125704      0.05636147892184
  C   0.21383049200245     -0.01036786941331     -0.00979826334656
  H   2.83114447814995     -2.27974640393505     -0.07546188538560
  H   4.46529467433510     -0.64877361043517      0.13012607300983
  H   4.14635545062106      1.68598046596012      0.17402698882894
  H   2.15526610303810      2.85515705913359      0.01428727235592
  H   -2.00710619830881      3.19191997510220     -0.23108297331948
  H   -4.23526356377845      1.20597447671685      0.04754202599189
  H   -1.94767473971555     -2.24848290377782      0.28339804621710
