28
Coordinates from ORCA-job ./opt_b97-3c_parallel
  N   5.45928152277477     -0.81856186302923     -0.19860834868207
  C   4.32340776703590     -0.57495193188709     -0.12687220060591
  C   2.96790483268164     -0.19105210665738     -0.04449606833102
  C   2.02589929765365     -1.20417343589290      0.08006939660361
  C   0.63844078257117     -1.20355190225325      0.14286386761457
  C   0.12565265120047     -2.51538902545443      0.31067439228610
  N   -0.23750656039290     -3.60915898704917      0.45913118221407
  C   -0.29631571733994     -0.11370848734111      0.05477750402496
  C   0.12472162857389      1.29194227002777      0.12506525003380
  C   1.43217163262338      1.78548790239596      0.06557821020537
  C   2.69412969087889      1.20663651103624     -0.05337061872372
  N   3.74571281668285      2.04722564381183     -0.17205547730167
  N   -0.77564722919899      2.31177515754927      0.23489327435157
  C   -2.07244174437894      2.06647133559201      0.19449424346673
  C   -2.58122465546574      0.79944489735486      0.01911255109742
  C   -3.87497158991556      0.24981518626874     -0.11586093793540
  N   -5.06657921577838      0.86818277184490     -0.13837767846762
  N   -3.81922401607474     -1.10738759243783     -0.28210213552004
  C   -2.53629913760413     -1.45040736533613     -0.23777951198257
  C   -1.67387396516658     -0.31676912992527     -0.05362830227095
  H   2.46166112107494     -2.19285300783274      0.13386660084458
  H   1.43381314358155      2.86768155336400      0.09626712204150
  H   3.61288025443139      3.03909459564637     -0.11868982994434
  H   4.68904367549742      1.70212233792656     -0.19313895835475
  H   -2.71659267842247      2.93596600123188      0.29802548396668
  H   -5.88872284335737      0.29062117186669     -0.11765773721233
  H   -5.16023089110108      1.82140247618593      0.15769111149979
  H   -2.25915305366509     -2.48272984730646     -0.34903430671838
