25
Coordinates from ORCA-job ./opt_b97-3c_parallel
  N   -3.55562360600969      1.64009555018539     -0.55161599732856
  C   -2.70174248811990      0.67767527749838     -0.12009839087030
  N   -3.33660615674802     -0.45281742385059      0.27323055123944
  C   -2.71397854918029     -1.60357184133105      0.39369978826280
  C   -1.39343451113279     -1.98676336113369      0.16720288407550
  C   -0.26096329211116     -1.19936556133675     -0.03450509197698
  N   0.89389314415987     -1.86364443195503     -0.15859737181306
  C   2.05899417746589     -1.20097388969358     -0.13856431725466
  N   3.15999530733514     -1.96893187999857     -0.28693615310285
  C   2.13441352552338      0.18786493350503      0.06818143550568
  C   3.19015156928858      1.09772030537395      0.15612514211638
  C   2.63556301714924      2.39410621268155      0.26547316962086
  C   1.25097707228878      2.30403685383292      0.23315363936958
  C   0.90604270175375      0.93392269649899      0.11951148921736
  C   -0.32745728923610      0.29462519113971      0.00266634096365
  N   -1.42787780846207      1.03734397149860     -0.10311909766647
  H   -3.19938465694940      2.57248324196488     -0.65302531298025
  H   -4.53444141111183      1.50875692849430     -0.37463053953256
  H   -3.36903034015343     -2.41134281049606      0.71200099505358
  H   -1.18982130056215     -3.04665033612171      0.24387662985875
  H   3.01876847920642     -2.92504396260793     -0.56150396870546
  H   4.04650889356610     -1.54618988836954     -0.48701799782887
  H   4.24641786338197      0.87154342135295      0.14733557642825
  H   3.20558760094569      3.30564979207221      0.36010161230100
  H   0.54805235251203      3.11828037639566      0.29076845594716
