33
Coordinates from ORCA-job ./opt_b97-3c_parallel
  N   -2.64366878665272      3.91945723923215      0.33785642059920
  C   -2.28902666773567      2.81863605910130      0.21429071103189
  C   -1.96399395110931      1.44831393678188      0.08572931830163
  C   -0.63340549889369      1.10097847310717     -0.04743859925526
  C   0.02100244764081     -0.13937238268038     -0.04484618367431
  C   -0.64797299256327     -1.43151918895407     -0.01353863179345
  C   0.11678826357450     -2.58818223831288      0.23769604518845
  N   -0.49209367201317     -3.86301222056550      0.33364305476344
  C   1.50338825564666     -2.52919651321514      0.35975445840972
  C   2.19075135016739     -1.34465713807624      0.19294631683220
  C   3.55862162803031     -1.04747544033103      0.22942600824020
  C   3.69498684138190      0.32734144160276      0.03701169017976
  N   4.84486846138210      1.05019494555345      0.03397094924395
  C   2.39212798637151      0.92090304071206     -0.11433651556389
  C   2.23809990840405      2.27825742912958     -0.38027428042793
  N   2.18637919253972      3.42263889838090     -0.60612990456919
  C   1.43588531103127     -0.11315144292024     -0.02325936062873
  C   -2.02432535984597     -1.54645885099544     -0.44124179027431
  N   -2.37437537274131     -2.63150141691863     -1.16246467234257
  N   -3.05109075028038     -0.73420991706085     -0.21233023629207
  C   -3.06390727259751      0.52965103985363      0.15139510723592
  N   -4.25785876816817      0.99778261159877      0.57169735943329
  H   0.02342285440998      1.95645999602568     -0.08928188042114
  H   -1.27441514209289     -3.87858804788243      0.97272679984054
  H   0.17189174785822     -4.56678613378379      0.61691095177473
  H   2.04891807261419     -3.43998728997406      0.58059835699226
  H   4.36140198868125     -1.74962550803841      0.38832026815233
  H   4.80345780340554      1.98921641723826     -0.32532145765976
  H   5.70480769593071      0.56599271620508     -0.14949896516394
  H   -3.35793430181940     -2.78517331515391     -1.30031410879997
  H   -1.74857071098815     -3.42379686355315     -1.19778750604297
  H   -4.40283447305896      1.98129945858919      0.71753203232096
  H   -5.06050728730953      0.40875786440410      0.44535777346924
