23
Coordinates from ORCA-job ./opt_b97-3c_parallel
  N   3.38924229174824      1.96199836107437      0.66363971793254
  C   2.67655762809720      0.95411915271224      0.12411866748842
  N   3.43832344212506     -0.05475377303375     -0.36374536934203
  C   2.93215929066269     -1.24710192680132     -0.59330899021234
  N   1.80182250402684     -1.84136479996892     -0.23611797515998
  C   0.66544184026575     -1.24708939876025      0.12512744075632
  N   -0.31006129939014     -2.06108596291668      0.55866810859249
  C   -1.57247504621788     -1.63920502853317      0.54507508539428
  C   -1.93711953389114     -0.40897964440884      0.03666993669065
  C   -3.15541187921539      0.30856846685141     -0.12306338521205
  N   -4.41447181727859     -0.12199839106478      0.05093761592981
  N   -2.92722000074504      1.60944068749934     -0.47240030140009
  C   -1.59854416821751      1.75447428598881     -0.52692723283452
  C   -0.91031468708821      0.55146717202770     -0.24803925730941
  C   0.42995119691383      0.21668747789262     -0.05656011465470
  N   1.36528192992787      1.15990061167583      0.05870183045602
  H   4.38847374315443      1.94305264313662      0.57728746047871
  H   2.92316113436207      2.82154877406156      0.88752038229528
  H   3.61188169736175     -1.91060337543630     -1.12264890203960
  H   -2.30322250822073     -2.33329684930611      0.95118875606072
  H   -4.62041579454146     -1.10157276454024      0.10463136627539
  H   -5.15942932724200      0.49872030734716     -0.21266068371920
  H   -1.15918603199766      2.70967638610273     -0.77062713056670
