27
Coordinates from ORCA-job ./opt_b97-3c_parallel
  N   -6.08945700298953      1.37660537047135     -0.04151994744095
  C   -5.00391099646214      0.96190615689308     -0.02927038708100
  C   -3.67808192602121      0.46256170204517     -0.01481531166171
  C   -3.51390255198696     -0.92191692865980     -0.01049539837865
  C   -2.35412338436843     -1.66608112888047      0.00463026522246
  C   -0.98884148368358     -1.31257840435367      0.01742437268557
  N   -0.17309716664856     -2.39364290854076      0.03467700565443
  C   1.14566998734417     -2.23051977356410      0.04169075900221
  C   1.75550133663552     -0.99645404755235      0.02691542899518
  C   3.10513122522161     -0.58080306968272      0.02611578899815
  N   4.21966252410043     -1.34438099287378      0.08172707415152
  C   3.09704244696597      0.84991797256264      0.02036726296657
  C   4.26646588155902      1.62135280109164      0.00317115682536
  N   5.27569704713907      2.19949958944254     -0.01704383711741
  C   1.77211071316460      1.30598885710391      0.01451594035967
  C   0.91764446099838      0.18918539105634      0.01647973811101
  C   -0.47658002989671      0.05613468178419      0.01279413732503
  C   -1.28475509103701      1.22246876031793      0.00710040533509
  C   -2.63705489729337      1.41392488339845     -0.00470163690554
  H   -4.42994965138830     -1.49827699488238     -0.01885706597580
  H   -2.48934977235630     -2.73902243788245      0.00833203797664
  H   1.72392315920438     -3.15036171129840      0.06283169634830
  H   4.16289469305231     -2.31666278389278     -0.15941550800293
  H   5.10664154861290     -0.90668196242586     -0.10072510076407
  H   1.49766730620563      2.34727305673289      0.00127986110921
  H   -0.71798845206791      2.14413515920754      0.01218182046095
  H   -2.95963219430392      2.44694077268186     -0.00759232139930
