28
Coordinates from ORCA-job ./opt_b97-3c_parallel
  N   -2.68832855321663     -1.71259176833908     -0.92957489570052
  C   -2.17988497946478     -0.60410173411603     -0.32708346367210
  C   -3.09700260120912      0.41883358288614     -0.08507803020542
  C   -2.86140839488552      1.72702060065782      0.28182288257104
  C   -1.67809796366456      2.41911804279238      0.34777897976190
  C   -0.38110284248172      1.97742547852905      0.04496145040588
  N   0.55740200866482      2.91938680814355     -0.09294053086347
  C   0.07211029028741      0.58998168485501     -0.03721077438930
  C   -0.76407398487100     -0.59082952118149     -0.00863830096069
  C   -0.10162935671970     -1.84892362340146      0.19987805019885
  N   -0.84781343810821     -3.03199410195543      0.44092119227145
  N   1.20171539549928     -2.04398109705074      0.19017694998464
  C   1.98346351054546     -0.97879563388651     -0.00981710050993
  C   3.37627222415735     -0.86224917921082     -0.08478486313028
  C   3.61853264693645      0.50624053852039     -0.18418354535526
  N   2.48644073901025      1.25386848132213     -0.17800736843011
  C   1.45594570090945      0.36268953029087     -0.08249494473268
  H   -2.16963283975040     -2.58049821103602     -0.84238540866003
  H   -3.68778862009531     -1.79131616921771     -0.99164616321304
  H   -4.13735369301920      0.15388285133061     -0.23600586169641
  H   -3.74942918110509      2.31335034292888      0.48922260736606
  H   -1.75796162475221      3.47527115684333      0.57834488792348
  H   0.30636575119966      3.88219987384672      0.04551536580722
  H   1.55410674661287      2.62096738188142     -0.17040831298710
  H   -1.47915191060312     -2.93715118499332      1.22572672350245
  H   -0.18539303747899     -3.77077106799229      0.63336513795333
  H   4.09872132620159     -1.66006900515727     -0.05467804746347
  H   4.57922346580098      0.99363629430994     -0.26654468907644
