27
Coordinates from ORCA-job ./opt_b97-3c_parallel
  N   1.17995840093262      4.31985338704290     -0.28907226225956
  C   0.69102421766911      3.26979555185228     -0.20832433116024
  C   0.01044117757932      2.03037107236996     -0.13554417014001
  C   -1.38221787102906      2.02073641261120     -0.23707348017113
  C   -2.05596003257999      0.82934791090728     -0.09977178275430
  C   -3.41927862680285      0.47353571951739     -0.08855302097615
  N   -3.59158474670076     -0.84081653368983      0.11627746297915
  C   -2.34940130161961     -1.38170757877527      0.22423046636816
  N   -2.22131275086870     -2.71901945875627      0.44169966585526
  C   -1.32870291842101     -0.39945882741498      0.08536835045399
  C   0.07216726262544     -0.45270480847414      0.04114276703578
  C   0.71909074313095     -1.68076196924587     -0.16645895927432
  C   2.06987467287799     -2.02352690716681     -0.16081799135122
  N   2.38891658203286     -3.32819533646367     -0.43464271900053
  C   3.13227352704071     -1.17160397233640      0.19488769144169
  C   3.04778227063870      0.17386180097386      0.47270856470944
  N   2.06199861045183      1.04868375553136      0.34947472840009
  C   0.77373263927419      0.84373521492329      0.08313267278739
  H   -1.90817614336125      2.95301032874186     -0.39082764344406
  H   -4.26819614431295      1.13019746078982     -0.20750608598001
  H   -3.07736015842673     -3.16185929172481      0.73821265242632
  H   -1.40481215025874     -3.02179100403379      0.94804184508309
  H   0.05692151069572     -2.49074149066658     -0.44608890705185
  H   3.33642050622548     -3.53324652954752     -0.69627638104651
  H   1.70166511040006     -3.89656319730181     -0.89686565409538
  H   4.11515358951202     -1.61860511207741      0.28515292395397
  H   3.97361000879425      0.63234953761393      0.81189189851053
