30
Coordinates from ORCA-job ./opt_b97-3c_parallel
  N   -5.85041049961811     -0.39575117428681      0.23246508946520
  C   -4.71976943525440     -0.13665071435798      0.16936507535680
  C   -3.35553800055421      0.19801133365276      0.09473625732475
  C   -2.84278452858351      1.52021492640213      0.01885030282955
  C   -1.46385271289140      1.42336822432104     -0.02391996107698
  C   -0.46002678092220      2.40415581064916     -0.06640064796765
  N   -0.71870406647876      3.71950993137347     -0.10741103604461
  N   0.82683543483260      2.06964960256694     -0.04605825495862
  C   1.23108617929518      0.79891535087569     -0.00675241832256
  C   2.64453609068305      0.71246879676901      0.03517927734749
  C   3.33594547020957      1.95802866066083      0.02672345437964
  N   4.01118213372084      2.90261418834702      0.02024411160661
  C   3.48828676489238     -0.39857992324338      0.11057206645014
  C   3.19950180310073     -1.72848397872483      0.11803673362038
  C   1.94820674303169     -2.36085839803561      0.01602429497540
  N   1.99554777205774     -3.71466605634383      0.01204177768786
  C   0.67261704960615     -1.72130114511039     -0.07390569401579
  C   -0.34021986686995     -2.69153235649210     -0.26151308129957
  N   -1.02925591916510     -3.61427028068475     -0.42355172974018
  C   0.28551246314069     -0.34861637660518     -0.01262457296866
  C   -1.07778938915914      0.02658381793754      0.01457563597528
  C   -2.29546766753097     -0.70735474154343      0.09334859700269
  H   -3.44658921301619      2.41325151976108      0.01140447416088
  H   -1.65253696004339      4.07683672098307     -0.16488728876628
  H   0.05613919728968      4.35711609208656     -0.15869918509468
  H   4.54063449409149     -0.15473574004168      0.16811468776043
  H   4.05072715861717     -2.39346638955855      0.18958780630277
  H   2.88178636642995     -4.17952672202537     -0.03320162790917
  H   1.17342723729187     -4.27477676403294     -0.12916499797237
  H   -2.43453676620356     -1.76654588419927      0.15757622779135
