29
Coordinates from ORCA-job ./opt_b97-3c_parallel
  N   1.58505058600003     -2.66475131883362     -1.41616016930822
  C   1.50707335355073     -1.62134476960155     -0.89477055390637
  C   1.46835200276158     -0.37944889426695     -0.25361525340573
  C   2.75931148530494      0.13956083552125      0.10118927299299
  N   3.81561324393402     -0.70906083132729      0.02784478090781
  N   3.10042428086129      1.35092615202757      0.52949860542314
  C   2.29567387140277      2.40813671052962      0.52561513543552
  C   0.97064091130136      2.58499521880695      0.19882441137811
  C   -0.04527938354902      1.64830791125819     -0.06994444747710
  N   -1.24466646732459      2.18213318020781     -0.30841063675509
  C   -2.33699232838638      1.40593728507998     -0.37247309125511
  N   -3.48488454261184      2.04816708648112     -0.71760666385196
  C   -2.27711485967579      0.04367283850670     -0.08818987693273
  C   -3.26749079297565     -0.92014157819930      0.15947801169874
  C   -2.65328638688135     -2.11756312217731      0.50253529545807
  C   -1.25556990051417     -1.95341696588799      0.45585298799353
  N   -0.37560449206892     -2.90270943559413      0.86651994316647
  C   -0.98486281162456     -0.57296811543796      0.08228992732449
  C   0.17233464337840      0.19209502716252     -0.03548077956173
  H   4.72384579068326     -0.29163755410118      0.11900077551234
  H   3.74193287766281     -1.60935197216736     -0.40937611061280
  H   2.81143412384784      3.31851343620897      0.81986314587414
  H   0.61408815246477      3.60577009369039      0.22378708359076
  H   -4.36522866446298      1.60000450331444     -0.54355087049575
  H   -3.46782726577704      3.04930843483328     -0.62746568410618
  H   -4.33557548887030     -0.76911754134891      0.10530847298640
  H   -3.15310164339980     -3.03594240898112      0.76952353878180
  H   -0.79105457826479     -3.79141779455597      1.09338229666397
  H   0.49748002113323     -3.00137624424809      0.36866111898047
