27
Coordinates from ORCA-job ./opt_b97-3c_parallel
  N   5.41326184533253     -1.13039783211488      0.01038281647645
  C   4.27755647007214     -0.87928108571389     -0.00420048554822
  C   2.93121288046124     -0.49278354509131     -0.01564510147027
  C   1.80323578830535     -1.32208752980226     -0.01266860641511
  C   0.64922914115712     -0.51830492717795     -0.00936340503005
  C   1.09402358651955      0.86693982557230     -0.01230254918924
  C   0.17193048351114      1.88071151516427     -0.01723907637097
  C   -1.19433036676776      1.58603070302447     -0.01172017083903
  C   -2.09607882463184      2.67406280967425     -0.01400429532867
  N   -2.81982633266981      3.58338337616236     -0.01484228790632
  C   -1.68249748049907      0.24300741990799     -0.00246163378601
  C   -3.06938607864191      0.05353926427141      0.00751217514688
  C   -3.86226164614783     -1.09241586245969      0.01698813134353
  N   -3.57564364066133     -2.38223523907985      0.01584292404506
  C   -2.31664342419653     -2.84119688864126      0.00459756166046
  C   -1.09387895744828     -2.21182805338087     -0.00390774555538
  C   -0.71398258806928     -0.84837743923382     -0.00370152013382
  C   2.50855235778910      0.87312219819371     -0.01282371553906
  N   3.33948349607026      1.93526208262258     -0.05932574075367
  H   1.85559119086804     -2.39763717320681     -0.00616273425927
  H   0.46868592411728      2.92161355606663     -0.02894956007663
  H   -3.65088571737600      0.96658791441884      0.00890785277072
  H   -4.92990329285307     -0.89029460315161      0.02625407506327
  H   -2.26518603491181     -3.92598295678672      0.00232381678253
  H   -0.26351780881890     -2.90551242300203     -0.01150514698579
  H   2.99409197918941      2.84963772853184      0.16690272282023
  H   4.32038260190028      1.78736412723227      0.10547353377840
