30
Coordinates from ORCA-job ./opt_b97-3c_parallel
  N   -5.15381864071232      0.75981471001446      0.32524806743820
  C   -4.00775805692741      0.95257241046784      0.26800117556196
  C   -2.64016448586816      1.24530065069695      0.20124120795804
  C   -2.09021604870467      2.56517571073030      0.28700898212423
  C   -0.72284850601717      2.51698104127644      0.16282978577929
  C   -0.34255539443332      1.14354507922207      0.01425235614343
  C   -1.57017272178520      0.35806245700882      0.05169287448153
  C   -1.50374711020681     -1.04370671022411     -0.03844040479167
  C   -2.65896190021119     -1.85440364220684      0.04161468666662
  N   -3.53270356438164     -2.61744100524616      0.10627718694682
  C   -0.26794749850144     -1.69182691446123     -0.14602156439711
  N   -0.21183272038477     -3.07401614351660     -0.22482915184928
  C   0.94222062644970     -0.92927400568581     -0.20742820921420
  C   2.13527128907703     -1.65189432769940     -0.43930279595599
  N   3.38591670968752     -1.37181117048817     -0.16867378619796
  C   3.77939104310455     -0.17293616479835      0.30373929020711
  N   4.85807478463961     -0.19964296986748      1.10341198911643
  N   3.32004412457379      1.02433855939025     -0.03723171785065
  C   2.08638102228572      1.28707021760670     -0.42155222837972
  N   1.92722514822734      2.43207051440367     -1.09056795735483
  C   0.88093691195835      0.50557882426039     -0.13640054604020
  H   -2.68268059407924      3.45290157547355      0.44214757489776
  H   -0.06396164561841      3.35995792484234      0.28270233597738
  H   -1.10709192343531     -3.52812358315450     -0.12653392287852
  H   0.47991278335976     -3.51766805068529      0.35491558252379
  H   2.00280097156795     -2.63763405468425     -0.87237247629899
  H   5.36122575609834     -1.06223731261494      1.20244317189324
  H   5.30934909153779      0.66273778644528      1.34757928331942
  H   2.73408454925942      2.99718489302109     -1.28688142230683
  H   1.02345615443967      2.71194095247380     -1.42925726092066
