33
Coordinates from ORCA-job ./opt_b97-3c_parallel
  N   -0.22433286067347      4.28102477474986      0.12977870181402
  C   -0.00940221132200      3.13537672021683      0.12096673159194
  C   0.32202305266619      1.77040814935424      0.10690247551690
  C   1.70271171781741      1.45029423509420      0.12539558076746
  N   2.65421555481884      2.43584552967356      0.21302684203058
  C   2.04727802821777      0.11018864657112      0.06682956909346
  C   3.27871843246111     -0.57452627235164      0.03024126983989
  N   4.53683589654782     -0.03682202935270      0.15790189694167
  N   3.11296850651578     -1.89486708727434     -0.19924886853665
  C   1.78127755954302     -2.10274907060194     -0.27183515165489
  N   1.30860374506441     -3.36182628790904     -0.50641527654685
  C   1.03579312289054     -0.90200379754747     -0.07185638806751
  C   -0.33570882499261     -0.63113005836966      0.02151581915060
  C   -1.25251631492557     -1.67922575732209      0.18064585256631
  C   -2.64918307193270     -1.69931636144344      0.19486512625498
  N   -3.24059025770699     -2.92390819825825      0.41820084362554
  N   -3.54599763030163     -0.73965760651229     -0.03658790004921
  C   -3.24444908730568      0.54207781262507     -0.21018977612209
  N   -4.33420884484845      1.30750513709874     -0.52549907080610
  C   -2.02197098704575      1.23297525956995     -0.10822220608567
  C   -0.71460835506265      0.78540627257385      0.02209554773839
  H   2.32706002393950      3.37709064193494      0.05894663251954
  H   3.51749144746132      2.23977624311907     -0.26748380732150
  H   5.24908826176749     -0.74595851601427      0.24285757353032
  H   4.62333408232027      0.67120325417871      0.87086520697621
  H   2.01231739513878     -3.98769102000676     -0.86616226404011
  H   0.42965024188446     -3.41940869388581     -0.99560714339873
  H   -0.80516782108301     -2.64014520732273      0.39197688239427
  H   -2.71859033639121     -3.60898151086721      0.93477224223535
  H   -4.21879858194505     -2.87342094335876      0.64470131192130
  H   -5.22897730003203      0.87985858254557     -0.36582829229305
  H   -4.28520016650186      2.30354703726322     -0.41495029448492
  H   -2.12641234647744      2.30759245734370     -0.18486677008900
