32
Coordinates from ORCA-job ./opt_b97-3c_parallel
  N   5.49502709581826     -1.73185030577706     -0.31172584921980
  C   4.49397277150085     -1.15186054904293     -0.18815493377662
  C   3.29020590361355     -0.43077738198961     -0.03266324662436
  C   3.45259837986431      0.92269192838463      0.33480138005682
  N   4.68447238168169      1.36006311788757      0.65754109557200
  C   2.43014900578946      1.89804987205550      0.31277758197101
  C   1.10131182875777      1.75561919900916      0.08960091541079
  C   0.26637683632047      0.61558719287157     -0.04775857036422
  C   0.72846363843727     -0.74518537350493     -0.06235754920979
  C   -0.21320067887617     -1.77919695627684      0.06388105526702
  C   -1.58352464152621     -1.55503542049804      0.11450736483058
  C   -2.42992393663498     -2.67888835019807      0.29968479222626
  N   -3.06153111441699     -3.63952844109825      0.45189112936498
  C   -2.07232184877095     -0.25354836797875     -0.01505460859490
  C   -3.38118803988960      0.27676541052622     -0.04484359023211
  C   -4.59517888536712     -0.42538178724359     -0.00270518847713
  N   -5.61877259632739     -0.97468187768016      0.02545857701406
  C   -3.26420544077344      1.67195826723172     -0.13926174713604
  C   -1.91009191354554      2.03749396474665     -0.15797674055142
  C   -1.47642425934259      3.36414234465937     -0.27033912557281
  N   -1.11423220891441      4.46733893620911     -0.35949811322949
  C   -1.12763551273206      0.84240306145540     -0.08617522299658
  C   2.09497237804021     -1.15030120417092     -0.29998179892710
  N   2.26398522395706     -2.40306852891421     -0.76966753420293
  H   5.48822050846657      0.75719770617122      0.62768824714252
  H   4.84877305001736      2.33609189219692      0.81840267449503
  H   2.76436677250170      2.91330281979923      0.48921734953049
  H   0.57184770027738      2.69470300372455      0.09354378923004
  H   0.11774724389103     -2.79483499671889      0.20819764023362
  H   -4.08976581671736      2.36152987412557     -0.19675610216222
  H   1.49481574163103     -2.89072112713632     -1.18750938705496
  H   3.18230389387079     -2.76747913972643     -0.95567204761337
