32
Coordinates from ORCA-job ./opt_b97-3c_parallel
  N   -5.16945557492469     -0.06327975416497      0.35910106910833
  C   -4.01934715459341     -0.20298453093641      0.23172257356624
  C   -2.63192526101099     -0.38450904915001      0.08860961765174
  C   -2.14583179288401     -1.69569590668480      0.36303129120405
  N   -2.99213276882161     -2.55832514571706      0.96820281280880
  C   -0.92719603245872     -2.20341311808554     -0.08816898376635
  C   0.15295866983860     -1.50041672174938     -0.58450890310232
  N   1.03641077176495     -2.13655987280967     -1.36786501345872
  C   0.47736961210274     -0.11568179367498     -0.24151291908718
  C   -0.48250654557394      0.93787832106363     -0.22366459671424
  C   0.00982455084531      2.26794093467614     -0.01227905373960
  N   -0.86954244988563      3.37693929090228      0.06539353322630
  N   1.28272440635911      2.58223679885294      0.11163930114422
  C   2.17856636195678      1.59790563934170      0.12680273441541
  N   3.50603764887001      1.76976062522001      0.30642571080724
  C   4.01244637838469      0.53030097514888      0.35997991804454
  C   3.05290005996496     -0.49199394618230      0.18543058146666
  C   3.28628614269442     -1.85823250553026      0.34571210093800
  N   3.45532999182859     -3.00764988657770      0.45331122806033
  C   1.81204489058495      0.20425336259622      0.00974405340612
  C   -1.90449955050930      0.72390499140062     -0.41185076058319
  N   -2.60963493041099      1.69282247781882     -1.01371881339338
  H   -3.95476747035399     -2.31743838093622      1.12696050588185
  H   -2.74422345925028     -3.52555300914694      1.05732317450443
  H   -0.85812631814307     -3.28363762303695     -0.13997807309450
  H   1.91801064126602     -1.69810455420592     -1.56901708201809
  H   1.04494673928705     -3.14153593978825     -1.40647908247747
  H   -0.30060331087484      4.19715761930271      0.22772231325223
  H   -1.53664532137400      3.29152864708259      0.82257738844037
  H   5.06308826463963      0.36646847580480      0.54967681566205
  H   -2.17651628323529      2.60520591119565     -1.12262394363238
  H   -3.61458687458314      1.64200119517049     -1.03930225342133
