25
Coordinates from ORCA-job ./opt_b97-3c_parallel
  N   3.85519218473885      1.96179561524003      0.22570823699242
  C   2.86162365018189      1.36590936900286      0.14251317550708
  C   1.62753787814461      0.68078852108298      0.05133169965433
  C   0.43524676934585      1.43327288817786      0.01282210264043
  N   0.49211415625264      2.81587244035561     -0.01885097892404
  C   -0.81794241709693      0.77284999589557     -0.04897162340287
  C   -1.95172743584364      1.55833816284171     -0.32958880705165
  N   -3.23686028249959      1.34918802906481     -0.09208646921838
  C   -3.76281406860787      0.20176151397260      0.30219226254795
  N   -3.33513659478436     -1.03845738949375      0.10034835371431
  C   -2.09691348429263     -1.39809826857698     -0.15214259133970
  C   -0.87504402484991     -0.69200271754317     -0.02058448629295
  C   0.31690207844007     -1.41269250998851     -0.02063057349410
  C   0.61192875058598     -2.79424558728767     -0.00737117562375
  C   1.99858389563943     -2.93464426516995      0.01062830300662
  C   2.61878210414688     -1.66726639625809      0.01709000688087
  C   1.60754958575744     -0.71348998672452      0.00577610662150
  H   -0.17183751898908      3.29640610033905      0.56405464058780
  H   1.41580957876645      3.20620828981781      0.07915521740305
  H   -1.74759318461503      2.53429515462161     -0.75824060561185
  H   -4.74551562289348      0.27766180099779      0.75617597692665
  H   -1.99560656199286     -2.43800005401434     -0.44450584941090
  H   -0.09596940531592     -3.60592163295265      0.02265889729002
  H   2.52285207582723     -3.87825581708724      0.02503108847701
  H   3.67828901525402     -1.47107729721336      0.03424952142014
