30
Coordinates from ORCA-job ./opt_b97-3c_parallel
  N   -5.30325503419447     -0.25779565401672     -0.65150716241397
  C   -4.17449910133914     -0.04040555496129     -0.46512268362124
  C   -2.82325135531340      0.22480751836567     -0.24140475700985
  C   -2.27707359222971      1.48836715609780      0.05385975585915
  N   -2.97267737063132      2.62649148086504      0.15810617202103
  C   -0.86394170804566      1.33560079644926      0.16791915582404
  C   0.11163896849334      2.27182085860320      0.34134813963260
  C   1.45606334695839      1.88420942350871      0.25492285469929
  C   2.43910796371813      2.89160545724124      0.37882142684028
  N   3.22586680127468      3.74031372476464      0.48321386102779
  C   1.83080253554571      0.53831401690827      0.00262826946587
  C   3.17815139162728      0.28385016262818     -0.34718671665976
  C   3.81564305236524     -0.86474470147476     -0.75396969990304
  N   3.46123902521447     -2.15704046117723     -0.72188496717617
  C   2.32647694683993     -2.55702997809186     -0.18765804748533
  C   1.17347860607486     -1.87202580909804      0.22889575848865
  C   0.28755023830446     -2.68008650470203      0.96187202108747
  N   -0.45374359015249     -3.36301324327987      1.54944222191437
  C   0.80021013110284     -0.48176130057063      0.03492777171036
  C   -0.52806783751272     -0.06363861850779     -0.00933778329016
  C   -1.77902340078481     -0.74261463134358     -0.27441865319291
  N   -2.00210780777176     -2.00976742775697     -0.63156665758653
  H   -2.54067862465038      3.47056743714126      0.48315807842961
  H   -3.97656454002481      2.61169718765000      0.12228920830875
  H   -0.11467180246705      3.31788584323088      0.49715481280106
  H   3.79395551129004      1.17025294100891     -0.42466682124025
  H   4.81856795786007     -0.71251251550980     -1.14149243685417
  H   2.27462917980622     -3.63216470962543     -0.03290662783851
  H   -2.96187555482638     -2.28183988699034     -0.77736943270341
  H   -1.40890540092456     -2.74839010786165     -0.28576331763117
