32
Coordinates from ORCA-job ./opt_b97-3c_parallel
  N   5.23508643174730      1.25342691837285      0.46773516224273
  C   4.11773496628924      0.96646478782267      0.29463702679459
  C   2.77527674790579      0.61536071763602      0.08337578745967
  C   1.87934570608099      1.67680254466642     -0.28057646334291
  N   2.45544527712728      2.85815087057338     -0.62986972231009
  N   0.56875184607205      1.70122827634704     -0.30496593995720
  C   -0.32869153181168      0.72161701133485     -0.13888058706810
  C   -0.09003937389390     -0.73832028402499     -0.16771222766674
  N   -1.09952059692548     -1.61371046755170     -0.28605714985917
  C   -2.37043335396794     -1.22198403521373     -0.21669355641356
  N   -3.31176737099439     -2.20310931211902     -0.38793058890354
  C   -2.70820572963701      0.10423805090267      0.05353291096841
  C   -3.92535370891315      0.78558834035673      0.25043382932446
  N   -5.16699339861606      0.21759643359255      0.34400962610614
  C   -3.63823600366009      2.18448227099102      0.30220385029226
  C   -2.27984822590899      2.36161212464852      0.16025441743767
  C   -1.66358496867936      1.08122399390008      0.02213386609847
  C   1.17790357385570     -1.34519275883474     -0.05389600255570
  C   1.16786120641447     -2.76154226168901     -0.05750202834710
  N   1.31039406776537     -3.91614774029730     -0.04084257956456
  C   2.46507035483310     -0.75744704090689      0.15363931070364
  N   3.47541415824118     -1.60583021176279      0.43106660525505
  H   1.84497042104476      3.65331985963079     -0.67567443980428
  H   3.43718035997894      3.02046899750496     -0.49703588955101
  H   -4.16294897145331     -1.93009671718096     -0.85184482906661
  H   -2.92301337603897     -3.07176758619549     -0.72127222463506
  H   -5.20167473649730     -0.70310958186970      0.75296251252589
  H   -5.89917859796193      0.81739351895628      0.68592177049851
  H   -4.37379477267508      2.96017510950781      0.45238477884556
  H   -1.75137982173031      3.29992948753885      0.17327790319550
  H   3.32121979924473     -2.59854745336751      0.44416066217972
  H   4.41954323796362     -1.27250194327006      0.50710366431742
