27
Coordinates from ORCA-job ./opt_b97-3c_parallel
  N   -5.22944374748272      1.18453520906716      0.04651341410908
  C   -4.14199049392087      0.76929204714669      0.02588271296378
  C   -2.88061133965525      0.17492957029840      0.00858485105251
  C   -2.64575401765172     -1.23747564035123      0.01644610867966
  N   -3.60217876320149     -2.18149385532235     -0.01273127257782
  N   -1.33669658136193     -1.54982790232552      0.01666991600296
  C   -0.66753518566781     -0.36020934141121      0.00847114408009
  C   -1.60533472864503      0.75407512946920      0.00494422409247
  N   -1.24211144321783      2.04130027544482     -0.00012845594450
  C   0.05870749604052      2.26273446128803     -0.00352805164643
  C   1.07684730663628      1.27722403145007     -0.00200975445117
  C   2.38730448310741      1.79224597822551     -0.00697228110141
  N   3.57416865343004      1.24277381266131     -0.00122556401605
  C   3.78798859746163     -0.09554414912847      0.00979704563367
  N   5.10004137210235     -0.39673129335425      0.02632836511956
  N   2.99243771488720     -1.15996162617044      0.00533082752511
  C   1.66408018446235     -1.20200517175946      0.00068706939192
  N   1.15753529971221     -2.43285003841732     -0.00747837404910
  C   0.69862898433508     -0.10855271561986      0.00460350351549
  H   -4.55397340914405     -1.91645007920340      0.16769754558707
  H   -3.34113342931461     -3.13051699747679      0.18361488475910
  H   0.36160247007126      3.30421985995383     -0.00777993828916
  H   2.42964185269240      2.87908872031018     -0.01624744702276
  H   5.39296766468967     -1.35543254912275      0.02961634676856
  H   5.77165265219319      0.34770373637718      0.02368246176240
  H   0.13996813851272     -2.56362067341567     -0.00641491613016
  H   1.80488733063051     -3.20165817381200     -0.00932234081517
