29
Coordinates from ORCA-job ./opt_b97-3c_parallel
  N   5.12417961214767      1.88675681005253     -0.01540135267124
  C   4.02806074223884      1.49549094111011      0.01455701031542
  C   2.72560388392080      0.95612705303654      0.04017132277893
  C   1.66754262986774      1.84006492372099      0.27595260001560
  C   0.31158653291183      1.64927234969061      0.28821422327338
  C   -0.48461901674823      0.49574062896834      0.08215594128201
  C   0.06518627765159     -0.85927219456198      0.03890263407594
  C   1.41334597218978     -1.18563964698779     -0.07553975812629
  C   2.60365538284381     -0.44718660446421     -0.13667422763094
  N   3.73588836162944     -1.15322584154774     -0.37053962463402
  C   -0.86331667187591     -1.96148304253930      0.09497780047574
  C   -0.37301307172177     -3.28561630413445      0.13429089524148
  N   0.03630606245453     -4.37361953742920      0.16357471841425
  C   -2.24365594657126     -1.78130957690126      0.10642449886897
  C   -2.75813870000609     -0.50773082001996      0.03377691867409
  C   -4.06087327838211      0.01590482323896     -0.01954287302313
  N   -4.05991151668576      1.35437639995431     -0.13559830691819
  C   -2.76220497815210      1.74328946286763     -0.14562908201447
  N   -2.47045628185172      3.05895583544093     -0.27907143842900
  C   -1.87125006111878      0.62544935700628     -0.01661329766918
  H   1.98196573501091      2.85762891036952      0.47186673685436
  H   -0.24589805527815      2.53634462001025      0.54884852055029
  H   1.58849102804938     -2.25059660432128     -0.16184063986111
  H   4.63753346554892     -0.71419619240040     -0.30777654054722
  H   3.71418310647451     -2.15572725565736     -0.37180548892082
  H   -2.88908463162523     -2.64744654297530      0.15656660414945
  H   -4.98971771057625     -0.53399397466286      0.00739355865364
  H   -3.25285966968717      3.63084862017998     -0.55541358445881
  H   -1.58962589405905      3.31535291035258     -0.69058848272044
