28
Coordinates from ORCA-job ./opt_b97-3c_parallel
  N   5.52054889182241      0.82087389644411     -0.47383395972381
  C   4.47233029862928      0.34328877207029     -0.31562293597424
  C   3.21966362661503     -0.25056301969082     -0.12165672017923
  C   2.95608669478992     -1.61332913738214      0.11257531471897
  N   1.64668897379648     -1.88243324427291      0.25964538127752
  C   1.00087076242433     -0.68671537963342      0.12545688575777
  C   1.94982400941215      0.37336016538941     -0.11497549359728
  N   1.60505316326776      1.65031053912322     -0.29563054719134
  C   0.31544918191354      1.91498899412566     -0.18302981937597
  C   -0.70993493953499      0.97175180834644      0.07479047748186
  C   -2.04368659835687      1.49944175483846      0.28423412071812
  N   -2.13153231577141      2.75543390264143      0.77896443093988
  N   -3.19970722603560      0.96301951703465     -0.03136684523023
  C   -3.44613884058511     -0.31467115798010     -0.30986201223977
  N   -4.68927367499438     -0.52788432520846     -0.82860750102911
  C   -2.67384071441860     -1.43897862010812     -0.00297535921324
  C   -1.32669161657672     -1.50340730192487      0.32473931084559
  N   -0.81278437852781     -2.68223348361857      0.70072386655797
  C   -0.36822653021410     -0.40434914108849      0.18761245076847
  H   3.69268729048351     -2.39904618719373      0.18135417387157
  H   0.03613717485595      2.94584745622712     -0.36290624937287
  H   -3.05241880476430      3.12401998669816      0.93751025036076
  H   -1.36300287246639      3.17011015322121      1.26992219301253
  H   -5.19427564808235      0.28810586441747     -1.12540954695607
  H   -4.87613408111007     -1.37958143005915     -1.32413613928226
  H   -3.19633853182657     -2.38814689815459     -0.03707010767283
  H   -1.39541212777814     -3.50040823947934      0.66615017640665
  H   0.21452168793309     -2.79055357698274      0.66605877952057
