30
Coordinates from ORCA-job ./opt_b97-3c_parallel
  N   -3.11762718293469     -2.76824940991890     -0.34015583413685
  C   -2.66224854737217     -1.70317089910830     -0.19709171793568
  C   -2.23074406298300     -0.38727600934575     -0.04429842586042
  C   -3.15574263715528      0.70638443647928     -0.08771683723157
  N   -4.50575218548609      0.54844853722816     -0.13817277580431
  C   -2.44953678072867      1.91374906227230     -0.02594982393014
  C   -1.08920568809607      1.60315889488906      0.04159392621608
  C   0.03384805939775      2.39716036278425      0.18911020822727
  C   1.31022479381228      1.85415486766686      0.20028039457316
  N   2.40969699537231      2.75276498930837      0.33168092362151
  C   1.52543977509215      0.45960303625328      0.06478257601976
  C   2.80698426677228     -0.05225370701603     -0.31325403056201
  N   3.71810575974729      0.78522825472180     -0.85459546246338
  C   3.23740443940154     -1.39938883094145     -0.22804935120315
  C   2.58110835606850     -2.51962481830895      0.19465861351861
  N   1.31171204313330     -2.71581136172187      0.57680016320405
  C   0.37623471427544     -1.80089907821405      0.48473402520124
  C   0.35420957957237     -0.42166270908816      0.14324018063720
  C   -0.92378866498841      0.15701353520866      0.03545741496550
  H   -5.05018250692148      1.31243538957689     -0.49621268546746
  H   -4.85054487564942     -0.36325660927587     -0.39010954851561
  H   -2.88287102712045      2.90131334333361     -0.01270350953180
  H   -0.07947103779126      3.46987774416713      0.30372074388525
  H   2.08789730411629      3.70737996610937      0.38698347665330
  H   2.95508238577556      2.55761981572478      1.16123056427021
  H   4.64891437488566      0.45434153467848     -1.02815343025739
  H   3.55228973663006      1.78539620712563     -0.80840514100881
  H   4.26794741111188     -1.56457322837183     -0.52469176600569
  H   3.17962687112336     -3.42628475515481      0.21921901279658
  H   -0.59725204216127     -2.18618692306194      0.76301512512451
