28
Coordinates from ORCA-job ./opt_b97-3c_parallel
  N   3.99511367098934     -2.57296457014319     -0.39201347401614
  C   3.35666227305286     -1.61618339778856     -0.21734426897430
  C   2.53548158447045     -0.47888850126277     -0.03223513124754
  C   3.20000657514517      0.66688869979034      0.42589845235471
  N   2.81516637561377      1.92143177975833      0.48037199427488
  C   1.59912324707357      2.35613129112420      0.16096039408002
  C   0.36575478640520      1.72900290738339     -0.02125090707508
  C   -0.72187230718768      2.63133704576577     -0.16106054335914
  C   -2.02621712980183      2.22305856981665     -0.19527999728673
  C   -2.32967529093308      0.86764901377361     -0.06267710747447
  C   -3.53790138060686      0.20293257003786      0.00548841730332
  C   -3.25856472523250     -1.17892827537641      0.18226463718442
  N   -4.21047622329626     -2.15337762219457      0.29486114798382
  C   -1.87158583251651     -1.38583991839321      0.17066178702514
  C   -1.24061684679300     -0.12434876645504      0.03210741652586
  C   0.09637776571705      0.29270203343162     -0.02643146111823
  C   1.14346563103694     -0.66167789570196     -0.28011433419835
  N   0.77781182809065     -1.86593601353639     -0.74505334901264
  H   4.22973093229363      0.50278888839372      0.72977309486824
  H   1.55553710731517      3.43966498007585      0.09698418412646
  H   -0.49387606506025      3.68735831353388     -0.19737646874904
  H   -2.82301955717426      2.94996224573791     -0.29093787295544
  H   -4.51933416412874      0.64730565378158     -0.05424691520822
  H   -3.91730358450855     -3.03665856678172      0.67484775027545
  H   -5.11954884105344     -1.86472773569383      0.61174531414269
  H   -1.41008164477841     -2.32819045194811      0.41533799740247
  H   -0.16771772755196     -1.99822526194579     -1.06728398314018
  H   1.47447923381964     -2.53307502488311     -1.03027238263191
