29
Coordinates from ORCA-job ./opt_b97-3c_parallel
  N   5.40181591683100      1.20483548017965     -0.42224577875066
  C   4.36145364521046      0.68962179674884     -0.35274099238094
  C   3.07613592717930      0.11756613841602     -0.22439196117544
  C   2.93621248664249     -1.20873793420606     -0.63124712329396
  N   2.00039087557395     -2.06909127126126     -0.31907541028336
  C   0.83102707990720     -1.81574943742302      0.25251834116465
  N   0.30825607639421     -2.83507290991911      0.94011844819513
  C   0.03819743938509     -0.60818197941614      0.10607264179155
  C   0.63700083331254      0.69225865694541      0.19207835197234
  C   -0.21016710675747      1.82621778061586      0.18598759673933
  C   -1.57857735944309      1.73029128097393      0.07779991292824
  C   -2.17740587420891      0.48456461031824     -0.01016846809451
  C   -3.52176471657863      0.09162338245500     -0.15763195381531
  C   -4.62237010019555      0.95396742679387     -0.20299081270101
  N   -5.52370608038290      1.69017780732555     -0.23639147480058
  C   -3.53668404608893     -1.32264729808454     -0.26128543243575
  C   -2.24598015847286     -1.81621435957041     -0.15921481172915
  C   -1.35799984978116     -0.71596515463939     -0.00148801468302
  C   2.04914720654712      0.93859561052497      0.32507810322993
  N   2.43805546371832      2.10462235209705      0.86604650558933
  H   3.76220075654456     -1.62538663376392     -1.19755216841100
  H   -0.58090232769603     -2.74911710469816      1.39824390697412
  H   0.80998652189131     -3.70487119578961      0.97856563043836
  H   0.22591370724238      2.81301003000122      0.15558559486228
  H   -2.18174386768977      2.62783894390699      0.03325254816294
  H   -4.42671643858752     -1.91455673917744     -0.40513077699539
  H   -1.98193313956674     -2.85425889147635     -0.27248529376904
  H   3.40904895582395      2.36481546640682      0.89122634931580
  H   1.78320898655539      2.69720353210840      1.33846054236741
