26
Coordinates from ORCA-job ./opt_b97-3c_parallel
  N   -5.56489055639166     -0.36338569620688     -0.11233226668754
  C   -4.41571496321079     -0.19054841046533     -0.07205379949640
  C   -3.01778607847392      0.01771484196695     -0.02699724933538
  C   -2.56357765159210      1.34344187434486      0.15682341411358
  N   -1.36874719607709      1.86239820087085      0.17058135574621
  C   -0.17527675928473      1.22511352595486      0.02888912608564
  N   0.84773687135547      2.05904577457171     -0.03733920210540
  C   2.13154097479281      1.63147501545236     -0.07219013124634
  N   3.04396207635312      2.62018400044182     -0.22691400602061
  C   2.45061414948102      0.28292346704089      0.02530720255748
  C   3.64376766601765     -0.46919607609172      0.02460553136328
  C   3.33720845013808     -1.82773453558392      0.05658700263260
  C   1.93380753073322     -1.96857308100610      0.06881574483691
  N   1.19890787887370     -3.08300182837816      0.09181753198624
  C   1.35766138741814     -0.64240027582280      0.06039686219081
  C   0.03671052871476     -0.25049693064671      0.01175686094340
  N   -0.89610450675356     -1.24472393757571     -0.06309626600578
  C   -2.19733435552482     -1.11939890440256     -0.11236465539608
  H   -3.35617176953941      2.07274260217919      0.30870756667529
  H   4.01287655848935      2.44578531382574     -0.03652461028443
  H   2.70833694686127      3.55826961382660     -0.09466482821595
  H   4.64745546791724     -0.07226618131035     -0.01128837009130
  H   4.04811369427309     -2.63851054956779      0.06632737340000
  H   0.19527239182767     -2.95438194236193      0.00962618782558
  H   1.61686626713636     -3.99171842787428      0.01030481281615
  H   -2.72663123613489     -2.06255940248156     -0.21715077058793
