31
Coordinates from ORCA-job ./opt_b97-3c_parallel
  N   2.30093364755923      3.26098765996320      1.61722976477147
  C   1.57125917292287      2.52599583600360      1.09068147763828
  C   0.58414710675293      1.67171059898689      0.54802920968400
  C   -0.70949558313725      2.20012036422546      0.42625731328329
  C   -1.71459477126831      1.37416723466344      0.01619412215411
  C   -3.08479958966130      1.59649531361997     -0.34835265927516
  N   -3.73495626163067      2.75987517215488     -0.35073521868172
  N   -3.69437484453842      0.46469860385919     -0.72529864006186
  C   -2.78972496228097     -0.53167499976269     -0.58378343131262
  N   -3.13154342293965     -1.75438273016328     -0.98019625697028
  C   -1.49866609885777     -0.03485346040061     -0.11528896267474
  C   -0.24647235559161     -0.60124544032201      0.12405444223198
  C   -0.06821643900702     -2.00352645329781      0.41795464213579
  C   -1.16760881419305     -2.70384206856199      0.94546964189656
  N   -2.08330241154836     -3.29553564063039      1.36008506167482
  C   1.10835646873508     -2.76081216995137      0.41543977448399
  N   2.33826560226270     -2.50788760892753      0.04527212468489
  C   2.80391599903636     -1.30495605463710     -0.32858471355223
  N   4.02631451142442     -1.38210840702498     -0.88111262597394
  C   2.21352642679981     -0.01543012605406     -0.16466763169199
  C   3.04395293073869      1.03547381601336     -0.60991382676362
  N   3.79539670588826      1.79393955936099     -1.07514949446435
  C   0.87613043799907      0.32125585917807      0.19995189216683
  H   -0.86278687287402      3.24794088301198      0.64482160668188
  H   -4.69885833703593      2.78397828622698     -0.63138436068823
  H   -3.29214417074090      3.61559080373082     -0.07618016983199
  H   -2.68331970703290     -2.56603205378908     -0.58348074877190
  H   -4.09820394021035     -1.86770651826136     -1.24029276389104
  H   0.97370999977725     -3.78024547362590      0.76676682331625
  H   4.46440717826763     -2.28506316481276     -0.89839880991924
  H   4.54630109388305     -0.56766181737675     -1.15675754757950
