26
Coordinates from ORCA-job ./opt_b97-3c_parallel
  N   2.60030493041324     -2.16344509807668      0.56270449223513
  C   2.11431623491654     -1.00096706945380      0.06556016666619
  N   3.06571111946998     -0.20029664095241     -0.40692912445555
  C   2.95454975603555      1.09723446485844     -0.60179941388798
  C   1.96178398669758      1.97383868102670     -0.20929423780103
  C   0.66150995026933      1.67591918495826      0.20443292212559
  N   -0.07724693824263      2.69631173810356      0.68511020056909
  C   -0.01423296130360      0.40609411936588      0.02127542296538
  C   0.68680319729540     -0.84869002304169     -0.01971968277982
  C   -0.06895958813119     -2.04317057534042     -0.09347361849963
  N   -1.38786666040050     -2.12419440044880     -0.11204050590390
  C   -2.06503033900610     -0.97771614284897     -0.06942578004313
  C   -3.45052653226344     -0.79370822215869     -0.10335260492420
  C   -3.68291701942536      0.58238810788840     -0.12489871533987
  C   -2.47047779953146      1.29057597172665     -0.07127018199969
  C   -1.41630070071397      0.35005014530532     -0.03002564059808
  H   3.59933751243349     -2.26391821100554      0.58812654939070
  H   2.04391550395036     -2.74363434621551      1.16024916994919
  H   3.83150009427814      1.54661601023042     -1.05944724339609
  H   2.21995687734715      3.02574439724398     -0.25648549409484
  H   -0.97140342680894      2.49597683262348      1.10288154649188
  H   0.37813018963576      3.54917732746072      0.95371330888117
  H   0.45576419659415     -2.98335217666112     -0.20833237958656
  H   -4.18328954575828     -1.58262050889874     -0.14290033028458
  H   -4.65523634883393      1.04930912967803     -0.18694164157371
  H   -2.40470453611721      2.35964982633271     -0.18685251450561
