28
Coordinates from ORCA-job ./opt_b97-3c_parallel
  N   -4.66422107952212      2.40036531267605     -0.00091181526718
  C   -3.98179338680953      1.45899538723523     -0.00047100946925
  C   -3.10663565289996      0.34409845150856     -0.00004107839404
  C   -3.73340596346613     -0.89662691788331      0.00070454265402
  C   -3.19175498754606     -2.16680002197035      0.00221865928465
  C   -1.85555387899713     -2.50671456578583      0.00326335420742
  C   -0.70108942370714     -1.71959016175919      0.00191339070596
  C   0.50336893995130     -2.48461706828188      0.00320320739867
  N   1.73247074220614     -2.02125056125629      0.00292163284321
  C   1.84208770834472     -0.68798871963579      0.00033135598344
  C   2.98833292625052      0.11609153217751     -0.00134906576408
  C   4.33665092074321     -0.23997760916813     -0.01521041197648
  N   5.48059017811731     -0.45366080957483     -0.03251011712195
  C   2.49775335390813      1.45991671483263     -0.00893575157036
  N   3.25795612545836      2.56654932035950      0.02092041336524
  N   1.15351795435515      1.51591913972107     -0.01101793249955
  C   0.71199487796488      0.22144176133097     -0.00388047128284
  C   -0.59574106268285     -0.27091301414650     -0.00177499047244
  C   -1.70689500235031      0.66456309901584     -0.00085532350097
  N   -1.39258246496852      1.95409630919325     -0.00105251959806
  H   -4.81490443669614     -0.84785357440744      0.00051086437258
  H   -3.89891740895086     -2.98490756211099      0.00305914945204
  H   -1.65985365256311     -3.57249971235692      0.00539666844650
  H   0.40531527794150     -3.56445958502433      0.00487181532335
  H   2.82506755777082      3.45326152721775     -0.16231308631106
  H   4.24501207944096      2.48823491764937     -0.14661693505051
  H   -2.11563817416326      2.65527503119975      0.00228019718188
  H   -0.39393777142985      2.22024941294430     -0.00138447984018
