26
Coordinates from ORCA-job ./opt_b97-3c_parallel
  N   0.21438646384174      3.11818363921455      1.21337821837593
  C   -0.36618539112543      2.21859568888164      0.75033211471321
  C   -1.06753998150760      1.13798883464445      0.18535261679666
  C   -2.39964499459714      1.44848879895106     -0.13819772742320
  C   -3.43249699703421      0.62191656273002     -0.50183408199424
  C   -3.42489387723481     -0.77509066928620     -0.46385785465497
  C   -2.40654780052230     -1.62149565577836     -0.11513678154176
  C   -1.02755182175553     -1.39985191419018      0.14559691147216
  N   -0.36687077684552     -2.53219584060691      0.43174854154380
  C   0.96832160950882     -2.52870415393279      0.49120545978250
  C   1.71540991966655     -1.42133815097130      0.18992913876506
  C   3.10465618877811     -1.24465239738553     -0.00563047417758
  C   3.32141783794267      0.05573552466363     -0.40510951918648
  C   2.08593670940358      0.76023078449821     -0.44324689651803
  N   1.98097148109789      2.02417110738848     -0.91876257284118
  C   1.04377443579611     -0.16057435180996     -0.06321988669954
  C   -0.34771097841861     -0.10281274094211      0.04846152345289
  H   -2.63842841951138      2.50277776080836     -0.06859207533535
  H   -4.36759247792219      1.10071446907008     -0.76043177340491
  H   -4.36620877774589     -1.25726659145378     -0.69997143551664
  H   -2.64677275472660     -2.67588433224276     -0.08190762202706
  H   1.43689729081658     -3.47409078597664      0.74341595533349
  H   3.85614694334990     -2.00862884581854      0.11763128946176
  H   4.27345969370913      0.49551885538640     -0.66198924608742
  H   1.30337122452756      2.64918577751001     -0.50519528728260
  H   2.85582081550863      2.47927863494815     -1.12157145320653
