31
Coordinates from ORCA-job ./opt_b97-3c_parallel
  N   -5.21737406616960     -1.05663833382892     -0.21714186806223
  C   -4.14349905692408     -0.60946450861116     -0.15209838346951
  C   -2.89510446897718      0.00549231728531     -0.08485060854631
  C   -2.67163365671717      1.41724993605042     -0.07341630794412
  N   -3.64308731323547      2.36120554513205     -0.07379558870074
  N   -1.37181624367669      1.73619189413756     -0.00520203647724
  C   -0.68483487893738      0.54383694765475      0.02059357762717
  C   -1.61225768827162     -0.56344728467991     -0.01386268173365
  N   -1.25003669949570     -1.84084562499099      0.08958927388032
  C   0.04854028004640     -2.09147918871596      0.13976118754908
  N   0.37923886468274     -3.43579017101222      0.25797600516886
  C   1.08366343752928     -1.09563564323053      0.03458706425489
  C   2.37751494272868     -1.58829063639345     -0.19356960456976
  C   3.60680466738600     -0.99193861855573     -0.25486482494390
  C   3.92071380943812      0.36027565681350     -0.02986659430257
  N   5.25424470540081      0.67959945358300      0.01365060679054
  C   3.01358177562318      1.38990332563388      0.18054662891919
  C   1.61483321854000      1.41698861818767      0.15426678473953
  N   1.05234667081505      2.62909860394989      0.26625256747084
  C   0.68405342130253      0.29820066238870      0.05985055883306
  H   -4.55854038309135      2.08068016575566     -0.37986884768838
  H   -3.36503145468477      3.29309333662062     -0.32590285479106
  H   -0.45524466015197     -3.98739900266437      0.38604891453494
  H   1.07517046601420     -3.65314021163591      0.95190751804967
  H   2.40496998272914     -2.65057292416344     -0.39665430585481
  H   4.44319692676081     -1.64421923689571     -0.47623487951131
  H   5.90451638207432      0.01915050811642     -0.37231587717087
  H   5.51846568958591      1.64017967671415     -0.11263152669233
  H   3.46522908875434      2.36508057976350      0.33453443532616
  H   1.63165371944531      3.44774202962007      0.29807973221556
  H   0.02706408457613      2.71292224847118      0.20411565009901
