23
Coordinates from ORCA-job ./opt_b97-3c_parallel
  N   4.29647283023872      1.11124895642516     -0.23559201522801
  C   3.05120912547306      0.58739494325486     -0.13873141808270
  C   1.82891841350128      1.29591933420653     -0.09288821465020
  C   0.83843649796444      0.31806018629792     -0.05420351106563
  C   1.56729072000976     -0.95593027250961     -0.09290208711392
  C   0.87681481663573     -2.15747034618097     -0.05047141962460
  C   -0.50668998498049     -2.14783128600912      0.01989152900242
  C   -1.26187321382901     -0.96758438276992      0.01328741310952
  C   -2.65074779804650     -1.10677952600839      0.11538734027555
  N   -3.65097873892310     -0.24759209470428     -0.02629635738132
  C   -3.51206318703134      1.06613308822446     -0.17000993580988
  N   -2.50622957882175      1.89183713578172      0.07408660907057
  C   -1.23271254083730      1.54306778606252      0.21605424394301
  C   -0.56838923658129      0.33254055341022      0.00722978238258
  N   2.89302952901725     -0.76530077040050     -0.13482923821170
  H   5.05712846486093      0.47671303226464     -0.06490159177998
  H   4.44523587689805      2.06317668142489      0.04429174248730
  H   1.71351990943036      2.36660634838134     -0.13268648893151
  H   1.42447610825677     -3.08999729511904     -0.06208909631520
  H   -1.03766929780574     -3.08899259510867      0.06792921811270
  H   -2.98963362090856     -2.12637597059932      0.28449806377358
  H   -4.42238095220488      1.56799062157725     -0.48586672183688
  H   -0.59224852041633      2.37648030229828      0.49071122347430
