29
Coordinates from ORCA-job ./opt_b97-3c_parallel
  N   -0.21246544079699     -4.22816933387895     -0.02949104820475
  C   0.10807590103875     -3.10957030886240     -0.02782013651125
  C   0.49503351005785     -1.75305651209367     -0.02145818481049
  C   1.85984703862196     -1.46679524346052     -0.01811854678625
  C   2.27705320459498     -0.15931709057072     -0.00484779498812
  C   3.54663890405339      0.47946649786905      0.00670205685559
  N   4.77591050331048     -0.08751832035861     -0.04016745597020
  N   3.41798709604325      1.82995772082007      0.01637250467474
  C   2.09688314166316      2.08315417586106      0.01525841139099
  C   1.31563925475540      0.91013087916012      0.00460999212729
  C   -0.07714875457003      0.67754258950653      0.00465981969154
  C   -0.95012292704039      1.76348919228392      0.02256968834105
  C   -2.34650585801770      1.84801360767359      0.02427027265021
  N   -2.88127251252238      3.10855512206675      0.08876813692336
  N   -3.28778873107004      0.90064063758785      0.01204608321120
  C   -3.04830747537612     -0.40203771261460     -0.01207044959400
  N   -4.18293174730146     -1.15732888740555     -0.06271981058695
  C   -1.83648539819218     -1.12918943006058     -0.02763638384837
  C   -0.51428351493593     -0.72471806151894     -0.01349638553326
  H   2.55873341519966     -2.29353837940746     -0.03067855070566
  H   4.88099007727658     -1.04248513981544      0.25056489117163
  H   5.54552671815977      0.52177749250802      0.17896676040401
  H   1.75748060495744      3.10857417220532      0.02661679206332
  H   -0.45937626505547      2.72769872522322      0.05217121347804
  H   -2.31690244204673      3.89245670503259     -0.18268122335450
  H   -3.86041317050973      3.17161473489914     -0.12711295026137
  H   -4.14489023836115     -2.13846169588856      0.14168113056079
  H   -5.04719753835164     -0.68071329854571      0.12200723377531
  H   -1.98054688578471     -2.20107641971550     -0.06038661916394
