35
Coordinates from ORCA-job ./opt_b97-3c_parallel
  N   5.82867975853574      0.12126327936493      1.14920697612776
  C   4.72793252800153     -0.07842128131943      0.82290835649589
  C   3.41211955722452     -0.31844945583488      0.43293252920921
  C   2.88903435661088     -1.55828790592053      0.00846997629921
  N   3.59560418408524     -2.68143579251359     -0.13765890368726
  C   1.49231011623140     -1.38972917187924     -0.23319135027536
  C   0.53656066229617     -2.27911941748056     -0.64031425341990
  C   -0.80602979026928     -1.88264443758734     -0.64406542181670
  C   -1.74022449843219     -2.79851964583844     -1.17773487811597
  N   -2.43076975533067     -3.57116937742810     -1.70371191290976
  C   -1.20357824489686     -0.58783927019677     -0.19143833598719
  C   -2.51834056082811     -0.38470811436781      0.28319959710050
  C   -3.27408294713456     -1.51633409904289      0.65639575989061
  N   -3.95969275173331     -2.35688698579502      1.07980265021265
  C   -3.12978086155556      0.86060700908933      0.66205970827677
  N   -4.23766209875976      0.80098478913565      1.42746966695292
  N   -2.79733840224049      2.09503248366596      0.31977572391794
  C   -1.69723124802257      2.49633544247093     -0.29907923044035
  N   -1.78193933515757      3.76108679698997     -0.76513389610256
  C   -0.45225062406597      1.81384605050135     -0.44673725652267
  C   0.54470154320791      2.55430778126109     -1.09242522068662
  N   1.34421694171228      3.22917292331940     -1.61223603257050
  C   -0.16672876157785      0.43934471943940     -0.16031527024216
  C   1.14664432063133     -0.01391089950260      0.00182238664301
  C   2.36105460378060      0.64150717962779      0.43158033515546
  N   2.52951494054268      1.87929673528024      0.89630261434516
  H   4.57245395286818     -2.70676351201752      0.09484949188925
  H   3.15573887157742     -3.54774055335140     -0.38388815814539
  H   0.77324128700924     -3.29026793220148     -0.94189955060609
  H   -4.74357978573614      1.65473489553893      1.57467230399925
  H   -4.66758838824728     -0.07386426181348      1.67022365668546
  H   -2.66659153484632      4.22644603075918     -0.68307804787987
  H   -1.05313229461802      4.18053047533715     -1.31296505333202
  H   1.89362095574821      2.61441546985682      0.64492874233115
  H   3.46343654379378      2.17717527395482      1.12697515420599
