28
Coordinates from ORCA-job ./opt_b97-3c_parallel
  N   4.62797843238944     -2.16946244417576     -0.20692311025925
  C   3.58117614530541     -1.67203557949324     -0.11858607509061
  C   2.33905797419953     -0.99989966506286     -0.02398522173387
  C   1.22379033052478     -1.80420524042392      0.16930769218887
  C   -0.13559338383428     -1.52852754230683      0.22051514864784
  C   -0.89636551290366     -2.70690341578124      0.45028204073255
  N   -1.44309656449576     -3.70986717053392      0.65851498164718
  C   -0.82104039336516     -0.28222100484169      0.08024454838302
  C   -0.12602939392489      1.01741789896592      0.18014001232336
  N   -0.80069820267143      2.17499086686040      0.34356423866835
  C   -2.12304891946645      2.19983411925626      0.29921769677530
  C   -2.87507940132520      1.07232092425193      0.04261636580223
  C   -4.25111250481192      0.86970230570884     -0.12251904225017
  C   -4.45668252295570     -0.50220223768097     -0.35945104577577
  C   -3.23899067803989     -1.16652314725496     -0.32369674217677
  C   -2.20680673860862     -0.20577428027924     -0.07371202363267
  C   1.26011463167221      1.26886974459257      0.06931447965527
  C   1.59379615641137      2.65250609001918      0.09704193680342
  N   2.08636163264848      3.70560794798362      0.08043044513487
  C   2.38815535606684      0.41624749998869     -0.10446133655586
  N   3.58438193092403      0.98831936107689     -0.31538780343216
  H   1.46289149453903     -2.85320530053919      0.27667728655043
  H   -2.58595707515087      3.16858570541400      0.45478395508371
  H   -5.01222340951425      1.63300911803008     -0.07900917092344
  H   -5.41079386728023     -0.97064495469964     -0.54145942864444
  H   -3.11476892450211     -2.22074573656672     -0.48457532070458
  H   4.41704473090710      0.42887123435064     -0.37815166270567
  H   3.68462619616211      1.98937022444117     -0.31191482801113
