27
Coordinates from ORCA-job ./opt_b97-3c_parallel
  N   2.80612574284977     -2.77583383896205      0.01452033688888
  C   2.25573248819173     -1.75142523471001      0.00064488888010
  C   1.79876633110218     -0.40618432354128     -0.01189073239397
  C   2.84412536326598      0.55842327879889     -0.02949750107747
  N   4.12415621172157      0.10403329740014     -0.09483503796834
  C   2.67791279538246      1.94969576189199     -0.01163579404169
  C   1.50941801398424      2.67489622968005      0.00832575026635
  C   0.18901245726848      2.26284098523186      0.01206751816295
  C   -0.37411755721487      0.98707670063287     -0.00086546931561
  C   0.38333184355168     -0.27673230691326     -0.00027209300056
  N   -0.22851937511760     -1.46600931071652      0.00989568982076
  C   -1.56196914270074     -1.57641333107717      0.01688386809479
  N   -2.03392043019465     -2.83468076388709      0.04950014018423
  C   -2.39702615910820     -0.44762989523283      0.00753362536372
  C   -3.77047271955698     -0.21084953069377      0.00638284137954
  N   -4.03669083477943      1.12389245537299     -0.00733289639775
  C   -2.85424923382958      1.75628649865597     -0.01261403158098
  C   -1.77367766166915      0.84255815983230     -0.00402887483167
  H   4.87840950743777      0.74342659046792      0.06826166243447
  H   4.32344531911466     -0.87361260262328      0.02832709550689
  H   3.59474918877141      2.52670237623840     -0.02477793167036
  H   1.64624869994408      3.74972475057538      0.02190598954808
  H   -0.53143047098949      3.06954781703998      0.02559775808775
  H   -3.01098511276783     -3.02601351047662     -0.06221448523816
  H   -1.37614935341748     -3.58942814917685     -0.03458001255240
  H   -4.58100136729273     -0.92505980580210      0.01761043510331
  H   -2.81563930014735      2.83528378409406     -0.02593271625290
