31
Coordinates from ORCA-job ./opt_b97-3c_parallel
  N   -5.15305467812203     -2.79428497525103      0.32583811077973
  C   -4.20582905565691     -2.12279645337874      0.25275881244743
  C   -3.01217020298226     -1.38007760745790      0.13015529544708
  C   -3.05930762742670     -0.02688166216608      0.37824681318267
  C   -2.07788264624743      0.96802667508519      0.26780015443807
  C   -2.54598338265034      2.23428884146817      0.71053475177262
  N   -2.98564621131564      3.20761650809688      1.16717669886039
  C   -0.71080110767503      0.83314210405759     -0.09191458474407
  C   0.08052929249837      1.98248604829884     -0.36450745490207
  C   -0.48950512900342      3.20481194621488     -0.79346824526460
  N   -0.85767382103080      4.21331698065673     -1.23650125832915
  C   1.48271236326876      1.94882065432145     -0.29757645754356
  C   2.11565215608541      0.77165022128960     -0.00201505602206
  C   3.49616340141156      0.42692775279925      0.11824796639163
  N   4.55162146405811      1.24316112457335      0.08716519125309
  C   3.56723485298163     -0.99635908758786      0.26994775039989
  C   4.77430610359488     -1.68844993121917      0.42495778217326
  N   5.81549818998699     -2.19268078389613      0.54680536986494
  C   2.26860284527766     -1.51008409256725      0.23405149545665
  C   1.35796713178935     -0.44660411458216      0.08278510648374
  C   -0.03706684477397     -0.47347171990933     -0.07261970511735
  N   -0.58727747405810     -1.67819810875425     -0.26199309404396
  C   -1.82913646733319     -2.09558742404211     -0.29165503613732
  N   -2.00118618108175     -3.35679647579957     -0.72902807923358
  H   -4.02472697033122      0.33982854065157      0.69881857764505
  H   2.02187937313403      2.86653296629408     -0.49114767319510
  H   5.48225277972262      0.87812338865951      0.19495480054711
  H   4.44818453609425      2.23926618521811      0.03527807909733
  H   2.01034758690639     -2.55171110320078      0.31705915893210
  H   -1.18606553047027     -3.89255374120291     -0.96561810036457
  H   -2.90501526665473     -3.79280497986867     -0.76633352207246
