29
Coordinates from ORCA-job ./opt_b97-3c_parallel
  N   3.07457286242207     -3.97061194308445     -0.45969153543323
  C   2.68220470849168     -2.88799651277578     -0.30724035188032
  C   2.22560324431339     -1.55568333355260     -0.12568471397305
  C   3.21309222146220     -0.56539355239445      0.02853410015887
  C   3.05356210397052      0.76615467562410      0.25539304793341
  C   1.88996441198535      1.58506608482354      0.30672240821906
  N   2.13947508740986      2.83532788832272      0.74482076841581
  C   0.54520538681801      1.21933028167565     -0.02859212461022
  C   -0.43740999164577      2.21972667080167     -0.25557692140733
  N   -0.05626409116332      3.57260122223522     -0.49257883762491
  C   -1.80365039476764      1.94805263173462     -0.24954983246448
  C   -2.25740099986827      0.66345458426668     -0.02990326622802
  N   -3.50388677912681      0.15813724343293      0.00434984234078
  C   -3.26660726322662     -1.17128870265012      0.14068644637802
  N   -4.27606575807399     -2.06764328448014      0.18555142695105
  N   -1.96840044043727     -1.57152901134644      0.19168669513944
  C   -1.29853934679275     -0.40974039873037      0.09312329484129
  C   0.09582361509572     -0.18197795143934      0.02872429944151
  C   0.85813369140986     -1.34962790225620     -0.04848816776479
  H   4.23662977998415     -0.91748944999414      0.00535378618323
  H   3.97563683009891      1.30697209647057      0.43493418234518
  H   1.41185814587243      3.53956275128452      0.66299392836458
  H   3.08679518102215      3.12906775916269      0.89548966258876
  H   -0.86916590327339      4.15768487111029     -0.61241482032055
  H   0.52034909637934      3.66271059533822     -1.31892036153681
  H   -2.51057031350137      2.74495675670052     -0.44821298474384
  H   -4.05352463296151     -2.98782350447458      0.51899394165856
  H   -5.19062124952681     -1.71196821375968      0.39667327721721
  H   0.24935452802973     -2.24435296654576     -0.07296628768927
