31
Coordinates from ORCA-job ./opt_b97-3c_parallel
  N   3.13220837783323      3.23230822904353      0.67240110785061
  C   2.39834130921953      2.35449973927233      0.46089893618278
  C   1.48222216775951      1.31282031364394      0.20406750720208
  C   0.10232163430106      1.61747964898048      0.11028186127997
  N   -0.28268789735455      2.97410346621027      0.16997881449497
  C   -0.84619187427623      0.60527999097926     -0.07999275994994
  C   -2.20185385039609      0.92702730536502     -0.49240591881461
  N   -2.39290339058743      2.02701596360740     -1.24599459446000
  N   -3.31909653677531      0.27071454530180     -0.21440106376867
  C   -3.41065902767391     -0.96505909162327      0.26082416421242
  N   -4.56916285810876     -1.25955080152782      0.89463524740033
  N   -2.57968411295696     -2.01270446808601      0.12420669705093
  C   -1.29358423896786     -1.88633882985946     -0.11790781467814
  C   -0.42020422576366     -0.78405530225372     -0.11341890669210
  C   0.96426420038632     -1.07953629943395     -0.13327771670137
  C   1.69059658620517     -2.26268612492985     -0.21351830440045
  C   3.06649747499170     -1.93125215155116     -0.12679809300283
  N   4.08548696457528     -2.83800902125233     -0.14090615776952
  C   3.22080018065554     -0.53660408005428      0.03465451723222
  C   1.94827979512126      0.00954997479271      0.03134380865143
  H   -1.00441348879214      3.14555281590287      0.85515398967720
  H   0.49839561001227      3.58681719174891      0.35503309599930
  H   -1.65700372012015      2.71867342460213     -1.29143004823706
  H   -3.34419977097267      2.32085734413433     -1.38305175856696
  H   -5.32392668960376     -0.60087693900720      0.83857249232209
  H   -4.78252072184700     -2.22890988897445      1.04313380188127
  H   -0.80783200444982     -2.84212071399475     -0.27833178887023
  H   1.31329863864058     -3.26639108149696     -0.32499305246183
  H   5.00607098629767     -2.49241758254061     -0.34746178793112
  H   3.89319497595901     -3.74431532298980     -0.52956682002989
  H   4.15102618568792     -0.00397610280934      0.14849678849718
