28
Coordinates from ORCA-job ./opt_b97-3c_parallel
  N   -4.72536706014646     -2.67604905639019     -0.71109956356572
  C   -3.88928542555427     -1.90035453516756     -0.49722916457981
  C   -2.85409398529727     -0.96075807625211     -0.22881365768818
  C   -3.24761561821134      0.35494256932422     -0.05352981826586
  C   -2.41995705087836      1.46901080525153      0.15422709645014
  C   -3.09341988063847      2.71339856877113      0.32457547442853
  N   -3.64085302885766      3.72626879110538      0.46611820278562
  C   -1.03154412061978      1.52657922750367      0.15893425436940
  C   -0.05128193627143      0.52763567473195      0.06100570831064
  C   -0.32629346364943     -0.92174577362749      0.09744149236507
  C   -1.55612898684661     -1.50534873191761     -0.12228294264696
  C   0.79843470933656     -1.80662844300225      0.27446576439430
  N   0.60257696926712     -3.14930918566469      0.48999813972520
  N   2.06490973824429     -1.42017504634733      0.17436364514866
  C   2.31651966586503     -0.13467513277961     -0.01993871991624
  C   3.56643108678442      0.49643091537091     -0.14922836702344
  C   4.81711015923369     -0.12902653633512     -0.16773533370076
  N   5.86229075249563     -0.63864859896991     -0.18260357363575
  C   3.31617614637026      1.89669319981502     -0.23971322267445
  C   1.95509127858834      2.14430495572579     -0.16993383122906
  C   1.28529530837639      0.90446337433379     -0.03993211250397
  H   -4.30938101588712      0.55172555331443     -0.09636933999843
  H   -0.63336574704253      2.52683596248970      0.25637672873089
  H   -1.53137701476234     -2.57845285919466     -0.25535229936238
  H   -0.11697048741954     -3.41962350019394      1.13814477602505
  H   1.46834262541076     -3.64491515667072      0.63119501197102
  H   4.08643353467295      2.64240269652988     -0.35189368842780
  H   1.50500123793796      3.12133114964602     -0.23662163568685
