30
Coordinates from ORCA-job ./opt_b97-3c_parallel
  N   5.17920583431595     -1.45034267790997      1.05481323143661
  C   4.10661114308374     -1.08607124036116      0.78826804341847
  C   2.85378938190863     -0.54841122339828      0.46793123592048
  C   1.62856208834928     -1.20951999130005      0.37289135608668
  C   0.62434396792022     -0.25010069158791      0.09475497241286
  C   1.27987844832978      1.03168590693746     -0.00775565749254
  C   0.51843730066538      2.13021571566840     -0.41703905047065
  N   1.09111565336731      3.30595182059638     -0.80456456038313
  N   -0.81270084029369      2.10241853438980     -0.38584037995183
  C   -1.46596947505761      0.97279526731518     -0.09530878771678
  N   -2.72764107910418      1.16110543682386      0.27684735121682
  C   -3.76212318267138      0.35045155089443      0.32271034011595
  N   -4.86694562101765      0.87295817849223      0.92005929429468
  C   -3.88036205426397     -0.93781622565953     -0.25450572697253
  C   -2.82758729119090     -1.74754262560848     -0.56705488352787
  C   -1.44077834460241     -1.53619152483954     -0.43312810685727
  C   -0.68000471827906     -2.69307862350818     -0.73261335022628
  N   -0.11156460987364     -3.67419241050156     -0.98926199457650
  C   -0.75974615073458     -0.33720868654440     -0.10478637483372
  C   2.64682451948509      0.85236138013876      0.22823283976128
  N   3.63295652900055      1.79740584432592      0.20392597991864
  H   1.49526619878203     -2.26311695497076      0.53241395188085
  H   1.99036468863167      3.25327287492405     -1.25397031858745
  H   0.44717354324573      3.96547858299718     -1.21119141895859
  H   -5.59496951491567      0.26618020207480      1.24814860621219
  H   -4.75343334670161      1.75672126629483      1.38507480386162
  H   -4.87793729994507     -1.33415018583384     -0.39226996996371
  H   -3.09118916781705     -2.72885804716419     -0.94029926371161
  H   3.37444425941175      2.71794120766731      0.52107390535710
  H   4.52793384237836      1.49881217795172      0.55973379082998
