30
Coordinates from ORCA-job ./opt_b97-3c_parallel
  N   -4.72076419123092     -2.80329982460099      0.74952613113857
  C   -3.86649757241881     -2.05144935397144      0.52193874241371
  C   -2.81826914059680     -1.13331351531443      0.23678398228620
  C   -3.19450028965371      0.18937866018447     -0.00489425621984
  C   -2.39391423086183      1.29536731513707     -0.18320536732135
  C   -3.09555743339893      2.50733091128102     -0.41883214020788
  N   -3.63613843940229      3.51763489557824     -0.60943541129007
  C   -0.96298567900474      1.42921057733963     -0.04317846023166
  N   -0.49792925044966      2.66861566131652      0.00690643375732
  C   0.01499158702660      0.35789948135559      0.00493803041065
  C   -0.29498384140316     -1.06340180191651     -0.08475994564591
  C   -1.53484164631682     -1.65541759109943      0.15458861462527
  C   0.77931556181795     -2.01080946695219     -0.29244248337428
  N   0.46705966717554     -3.34123791650358     -0.52890245821798
  C   2.10277574142445     -1.62904761665343     -0.19122596218409
  C   2.40936147747062     -0.30258457263869      0.04595121335289
  C   3.62372589072401      0.40211785878131      0.15627065059032
  C   4.91201071196378     -0.14295735079072      0.13433236468533
  N   5.97280953850555     -0.61915972180671      0.11011000607701
  C   3.25768398940600      1.76211449038477      0.26761355728004
  N   1.93503445497374      1.94304627995916      0.23402423414368
  C   1.36910296827009      0.69442653229969      0.10544287161598
  H   -4.25877820402320      0.37744301849906     -0.04184501751445
  H   -1.12782748084788      3.45310518120791     -0.04416650643324
  H   0.52978251915681      2.80510175197876      0.11319484564209
  H   -1.48655234994401     -2.72377251645125      0.31388906113501
  H   -0.22523697715298     -3.51538164915288     -1.23844611579407
  H   1.26869410396154     -3.93654269898951     -0.65311377323736
  H   2.89308182703639     -2.35624599629129     -0.33146176739029
  H   3.93171355009207      2.59821751572945      0.37105310460890
