31
Coordinates from ORCA-job ./opt_b97-3c_parallel
  N   5.03377086984037     -0.35346059619018     -0.88364111549205
  C   3.97845663499500     -0.67186213758877     -0.51646852029349
  C   2.66723430411199     -1.03145252193723     -0.11515627048864
  C   2.55525700998507     -2.23023319761941      0.58948802101923
  C   1.41637412879807     -2.93643444050216      0.90318613874792
  C   0.11095991684475     -2.62547852654284      0.55830894825915
  C   -0.45054336601364     -1.45245582996026      0.05953768129120
  C   -1.87682350510632     -1.47733642901754     -0.16528117536323
  N   -2.51075654926694     -2.69323016217611     -0.28990243516362
  C   -2.60159532832563     -0.28920419988042     -0.15249247115334
  C   -3.99571691371055     -0.32657248139307     -0.37175099326559
  N   -5.14061952243533     -0.39875956768112     -0.55674929407243
  C   -1.94949954174739      0.93709661778276      0.08859366719185
  C   -2.44403822521852      2.22540828007724      0.23207335224675
  C   -1.35037986104455      3.09428427158535      0.37124161809682
  C   -0.14938028816346      2.37952188687008      0.27642241892826
  C   1.11545229103921      2.91709090002345      0.52577417867511
  N   2.18365688597525      3.34788723095903      0.70313155766044
  C   -0.49394908296712      0.98520850322101      0.09607060640328
  C   0.24671608389603     -0.17885931024064     -0.04617963264493
  C   1.63744787756326     -0.12246659035996     -0.47528512034007
  N   1.96591064414476      0.89136970222163     -1.27933299674653
  H   3.49713343407361     -2.68676564288629      0.86398572450884
  H   1.56203734303022     -3.87316732509131      1.42360144185809
  H   -0.61327374434544     -3.39239102405056      0.80007760242811
  H   -2.06796919121970     -3.36541300778509     -0.89319400419557
  H   -3.50657695585613     -2.64879738477245     -0.43722675577151
  H   -3.48442951795363      2.50544814715430      0.24594039952798
  H   -1.40716258020448      4.15485776416781      0.55830167682346
  H   2.92945666512474      1.10652536238877     -1.47858069938632
  H   1.29190784915622      1.60570629422415     -1.48787155638956
