34
Coordinates from ORCA-job ./opt_b97-3c_parallel
  N   4.47161069674059     -2.41273266072328      0.95648819839985
  C   3.74239895696394     -1.57223500451389      0.60866745687479
  C   2.87360855917923     -0.54934371755501      0.18072204441221
  C   3.51444766976996      0.56539640238360     -0.42173464287904
  N   4.83571418422256      0.45172904519771     -0.72021349042675
  C   2.90140019605487      1.78470484831447     -0.71597502620315
  C   1.62706273507347      2.18633307507065     -0.40101960589535
  C   0.49645727193872      1.49252430181816      0.03706253934505
  C   -0.65603895934664      2.29477775195335      0.30862649515053
  N   -0.50668470916940      3.67213769427904      0.46635814830853
  C   -1.92154535315912      1.73493824701715      0.32982102895897
  C   -2.08720062620745      0.38864787534129      0.07286912158725
  C   -3.25438191251448     -0.38554560154607     -0.03200082114814
  C   -4.57390519968547      0.05468202140033      0.03461615850169
  N   -5.68941342491761      0.39277363392065      0.08018539906065
  C   -2.84636479368053     -1.73470417085502     -0.27221406032125
  N   -3.71484630109082     -2.76807765129379     -0.43296555389110
  C   -1.44887107078990     -1.80573533071054     -0.26503219686697
  C   -0.93341396809409     -0.49983832288431     -0.06479573879823
  C   0.36257610361520      0.03994506871948      0.03343111663480
  C   1.48035097502630     -0.82337041399238      0.30459419162741
  N   1.17755415825876     -2.05974476130683      0.75311890035513
  H   5.36225829270244      1.28388552071613     -0.90960427728585
  H   5.36260726181419     -0.34313597782165     -0.40310527676209
  H   3.53554134028337      2.52993977074739     -1.18090398826690
  H   1.43761316537078      3.23406081387772     -0.60051639336911
  H   -1.37341717771390      4.14969727162362      0.65090839257809
  H   0.19798078194652      3.94914444923198      1.13028114651630
  H   -2.78760741342796      2.35540596781293      0.52817972504943
  H   -4.66629271753230     -2.53755715879084     -0.66463884922244
  H   -3.37146925715103     -3.60743903532211     -0.86418817683448
  H   -0.89557205090503     -2.69059948589421     -0.53094939697234
  H   1.90336545272306     -2.67542935935645      1.07575267777983
  H   0.24015841530157     -2.23814846345961      1.07621938900234
