29
Coordinates from ORCA-job ./opt_b97-3c_parallel
  N   5.68253661045024      1.20299065210944      0.27943686426319
  C   4.62328669779138      0.72447870138412      0.22291666972801
  C   3.31386873670109      0.20460095118311      0.12819960070750
  C   3.16664221075224     -1.17418398484942      0.27548238049874
  C   2.05857309863669     -1.98229529118367      0.17564591668008
  C   0.69944896942801     -1.68510578831753     -0.02131253045392
  N   -0.07954351378212     -2.78008085787600     -0.14558869235395
  C   -1.39982062137106     -2.65443927718819     -0.24524416637498
  C   -2.04541986929732     -1.43908408364217     -0.14974972636667
  C   -3.40492349282275     -1.08769833199020     -0.14673141489406
  C   -3.48485634927927      0.29646222893261      0.03579591746622
  C   -4.63428184025309      1.08613557656818      0.16590642211897
  N   -5.54221671567284      1.80304065606761      0.29148929469935
  C   -2.15910170098952      0.83152421531242      0.14163847066634
  N   -1.89360435836306      2.15444898006149      0.34284690324782
  C   -1.24948588375529     -0.24383228802858      0.00026254981591
  C   0.15571828191927     -0.32021549531426     -0.05298450227987
  C   0.91056939120999      0.84893922477499     -0.21688067984474
  C   2.27499860100775      1.13405610964474     -0.16997316309794
  N   2.63950183513938      2.43189180205885     -0.36766962460420
  H   4.09344399230691     -1.69928488711463      0.46799139423908
  H   2.24057408240217     -3.04454011384030      0.26283465236337
  H   -1.95708926695357     -3.57503826488725     -0.38393605714066
  H   -4.24422622761061     -1.75666933625807     -0.23836276875086
  H   -1.05994479093017      2.37097741847150      0.86537000846802
  H   -2.68540304828441      2.71495726687818      0.62069216230144
  H   0.31351860920232      1.71801912883592     -0.46042908108070
  H   3.60824346553315      2.66154009902217     -0.50661643942917
  H   1.97614572058723      3.06989542399474     -0.76632406839495
