26
Coordinates from ORCA-job ./opt_b97-3c_parallel
  N   -5.11889950900731     -0.47399690671378      0.31186623211045
  C   -3.98532084222778     -0.71786425436999      0.22485939688024
  C   -2.63283004824693     -1.06947802461353      0.12225628828944
  C   -2.14707615993759     -2.41080108611771      0.08093204269024
  C   -0.76970955245854     -2.41544179927897     -0.02711100944262
  C   -0.32712581037329     -1.07268797066416     -0.05651190083535
  C   -1.51983794630544     -0.22401953295617      0.04174253895593
  C   -1.36657816351347      1.16777899145216      0.01035842147404
  C   -2.47451538358504      2.05310850531554      0.07051653534311
  N   -3.34032200812984      2.82316246594863      0.11711834734663
  C   -0.09407963598419      1.71958261422268     -0.09072376868023
  C   1.06654643190516      0.93295865621960     -0.13498502432256
  C   2.28927127334567      1.63089315888505     -0.23263541384985
  N   3.54212105675555      1.25471769901986     -0.13089500482777
  C   3.95171046684244     -0.01318004845521      0.01489967071695
  N   5.21079327915142     -0.15196764282787      0.44862491580609
  N   3.34550654672679     -1.18521604658394     -0.28960671535934
  C   2.05924226592538     -1.36580026501536     -0.37259155347939
  C   0.94817226309650     -0.50615805511498     -0.14188382177132
  H   -2.78203720944466     -3.28082683258219      0.13408249898081
  H   -0.15504577673415     -3.29965298156035     -0.04810732908623
  H   0.00213108684759      2.79470877786428     -0.12394646591032
  H   2.18193239661486      2.70305140387801     -0.37470159080019
  H   5.76441106700985      0.66558207926263      0.62929085434764
  H   5.62182003958558     -1.06625601447505      0.49618576610387
  H   1.79198294104145     -2.37843819163917     -0.65686132668029
