29
Coordinates from ORCA-job ./opt_b97-3c_parallel
  N   -2.68091386657914      3.11456006084316     -0.37079206936765
  C   -2.61333008922465      1.95409500743309     -0.26926764148516
  C   -2.51262731050587      0.56984834582616     -0.12222325811823
  C   -3.58153585998861     -0.34494069980475     -0.29694394773166
  N   -3.21005076642912     -1.62592438084111     -0.27135684987167
  C   -1.86487622503322     -1.60138070423491     -0.10787651625350
  N   -1.08576004967760     -2.68175631649503     -0.11512905993264
  C   0.21225059518278     -2.47400202972649     -0.00851970818902
  C   0.84635787948480     -1.21762824533539      0.16876114282540
  C   2.29224332765135     -1.21485033534704      0.18342180115010
  N   2.90902515858159     -2.39894336311108      0.47172568945048
  C   3.10994009027861     -0.18060293351012     -0.23702955043229
  C   2.81426396845229      1.17991922785261     -0.38197201617687
  N   3.82356224938009      1.97808953650888     -0.85517181171109
  C   1.67887122260761      1.83343998775786      0.10674117300372
  C   0.51207189007222      1.26993107983359      0.58538178759395
  N   -0.28567593350482      2.00977174532944      1.37654184988194
  C   0.02034728866416     -0.06074922880149      0.23855777397385
  C   -1.35132887179965     -0.25053989869432      0.02317941527365
  H   -4.61126596047116     -0.06450032810423     -0.46539446868217
  H   0.82402679708334     -3.35531173565141     -0.15085760064770
  H   2.42098178734473     -3.06961707180924      1.03451481821373
  H   3.90482320430973     -2.39217799231969      0.59496195429669
  H   4.15030125594503     -0.44258658373487     -0.39746520258991
  H   4.54841354940521      1.54382841378484     -1.39740903694259
  H   3.57946003971390      2.90228921541674     -1.16271837543111
  H   1.76706778988216      2.90849441956065      0.21641684794283
  H   -0.17267079822463      3.00829775735429      1.40894282385593
  H   -1.21854841090117      1.68831666621980      1.56481509170100
