31
Coordinates from ORCA-job ./opt_b97-3c_parallel
  N   -0.15443643982066      4.04349690445012      0.38576586263993
  C   -0.22511676529393      2.88901782336101      0.25329927113002
  C   -0.46849443027133      1.50861765495462      0.12223210822570
  C   -1.81547445469400      1.07322834840737      0.11969500841610
  N   -2.83500129710580      1.97371660455453      0.24603495417791
  C   -2.05764590012017     -0.28706760624306     -0.05891511413254
  C   -3.25448331938458     -1.02644997584770     -0.15780188246837
  N   -4.53058005022987     -0.50348593558875     -0.20556964788039
  C   -2.91611411694653     -2.40734149259254     -0.17838397381443
  C   -1.54078486241183     -2.52467265639548     -0.12119281723604
  C   -0.96915798568272     -1.22362346443128     -0.06511709427779
  C   0.37326861869638     -0.84355178681603      0.00362814941641
  N   1.28394783301485     -1.81325462009743      0.12919720389380
  C   2.60594503725076     -1.72715087418219      0.10967310812787
  N   3.22298147659020     -2.94550368915565      0.27697188409176
  C   3.44289826855316     -0.62528950873917     -0.11040727443798
  C   3.03049010876402      0.69356343938886     -0.24822947073587
  N   3.97141433406990      1.64226277794835     -0.53989165678018
  N   1.80561639810580      1.22678426878458     -0.14461170121905
  C   0.63756383020952      0.62375304190487     -0.01913737439541
  H   -2.57513537337729      2.90724644590625      0.52510586099031
  H   -3.67355790537422      1.63345199946743      0.68731707434097
  H   -4.62375099853891      0.33157193843312     -0.76467395125447
  H   -5.24438246034154     -1.17462595382783     -0.43971722018913
  H   -3.62603504226896     -3.21692242123831     -0.25861843352089
  H   -0.97458229535448     -3.44055350566217     -0.14275516921175
  H   4.15832690887618     -2.95801853475509      0.64220964352845
  H   2.61533862366600     -3.67009317317686      0.61866861119256
  H   4.50509752120163     -0.82403021843073     -0.19408098507353
  H   4.94223704475808      1.44189678185058     -0.38523655351844
  H   3.67682474294656      2.59328278258332     -0.40175440573166
