26
Coordinates from ORCA-job ./opt_b97-3c_parallel
  N   -5.22477406673957     -1.73439367968052      0.00390064827499
  C   -4.18692363162738     -1.21124576127631      0.00323440795472
  C   -2.96471532404212     -0.49474222851351      0.00259458420217
  C   -1.79848153264128     -1.24539743668156      0.00192417505844
  C   -0.45131408715410     -0.87982584763073      0.00113257898490
  C   0.49204694998740     -1.93468470296708      0.00043560113302
  C   1.85237897592196     -1.71835270912872     -0.00041025704746
  C   2.32991544691288     -0.41173448477260     -0.00055205250014
  C   3.60257500453578      0.17929742095513     -0.00126748000296
  C   4.84080897137818     -0.47177454211178     -0.00214552320167
  N   5.86461534227400     -1.02402017680362     -0.00281706153307
  C   3.35632709812237      1.58090979480114     -0.00090896375193
  N   2.05749323139704      1.89215291537854     -0.00005191088758
  C   1.39986616753577      0.70046972024015      0.00019198319833
  C   0.01495444121571      0.48868326219513      0.00100179319610
  C   -0.80266797847965      1.64563712615465      0.00179949965129
  N   -2.09330815161417      1.85035003075446      0.00237023431339
  C   -3.07588598591168      0.93161915423052      0.00251876930916
  N   -4.29866581323583      1.47729865558616      0.00271314750448
  H   -1.97191880686648     -2.31423667273010      0.00200442856988
  H   0.11854560533092     -2.94938249828854      0.00056469946508
  H   2.53770097991660     -2.55580636772269     -0.00094757945861
  H   4.11347205895877      2.35090773315978     -0.00127065393093
  H   -0.22399920337611      2.56366995203667      0.00186678085953
  H   -4.35980337800186      2.48030280811874      0.00281242040771
  H   -5.13986087299714      0.92718875309675      0.00289266473118
