29
Coordinates from ORCA-job ./opt_b97-3c_parallel
  N   -4.37027559233455      2.06003082814054     -0.16316401129223
  C   -3.48741506408081      1.30899539027998     -0.07647818240004
  C   -2.42450366323389      0.37424435335950      0.02558374935034
  C   -2.85187495568447     -0.89079516156400      0.40415567104075
  N   -2.23331372204107     -2.05367414138767      0.54849514069709
  C   -0.98261755228339     -2.30041168201850      0.18123208216049
  N   -0.66137740132364     -3.61283046866484      0.24924912076406
  C   0.04334185078847     -1.38970160339079     -0.25097654781072
  C   1.12114458415364     -2.00614991403967     -0.88712616084915
  N   2.01426444830199     -2.57639584362452     -1.38349461753363
  C   0.10256796569797      0.03485976430655     -0.07930317953221
  C   -1.08637800105015      0.88039728354760     -0.14519094034082
  C   -0.92945789028403      2.24453506333638     -0.37284550091317
  C   0.31430868221458      2.86574927307897     -0.40070264812662
  C   1.43711192122897      2.11718994038957     -0.16388364768520
  C   2.78588914098837      2.52077477002219      0.06172966743554
  C   3.51960735267995      1.42469308044377      0.42762371882206
  C   2.67384631610361      0.27332709257527      0.40987648337408
  N   3.10207774774273     -0.92408395927014      0.82957148744448
  C   1.33834601508365      0.69583598138016      0.02268962928695
  H   -3.91453692544837     -0.95696343410086      0.61529745556111
  H   -1.42341413688683     -4.24999728625410      0.39744186162611
  H   0.19773072723383     -3.96949877171254     -0.12788447727920
  H   -1.81364979607348      2.84963435654233     -0.50266216882954
  H   0.37930104028743      3.93539796598564     -0.55075772346210
  H   3.14923765818253      3.53344073450667     -0.02114836148430
  H   4.56648759781675      1.40227742931356      0.68745227668324
  H   2.70660416936490     -1.77347804017670      0.45491001939639
  H   4.07618046555556     -0.99575619370507      1.07245644799620
