26
Coordinates from ORCA-job ./opt_b97-3c_parallel
  N   -4.36821549474539     -0.80855898901740      0.08388707476737
  C   -3.13487557691358     -0.25328166021325      0.01731295035710
  N   -3.18634579359771      1.10144404677443     -0.00632047924023
  C   -2.11771215712746      1.87274752736871     -0.03020724959951
  N   -0.81055644178353      1.66550790464638     -0.03213617148129
  C   -0.19521585065320      0.45424203317542     -0.02732614037118
  C   -0.83003256213331     -0.88459310881156     -0.02314282330148
  C   -0.00241636950700     -2.00987079578462     -0.03605363560643
  C   1.39826191336711     -1.97154894606445     -0.03799020741607
  N   2.11529517316582     -3.13212002020737     -0.08958740476152
  C   2.01146643632544     -0.71110357935015     -0.04332054642217
  C   3.32993222878144     -0.22857146447051     -0.05763047609339
  N   3.40205323278308      1.12100034665785     -0.05533429488601
  C   2.11868654021404      1.55107017024514     -0.04070922750292
  N   1.76647907497538      2.83060236200754     -0.03439856135235
  C   1.18570054620016      0.45195406074028     -0.03166897165207
  N   -2.14975635915438     -1.14160734197748     -0.00411884316280
  H   -5.16809897036129     -0.21379659311038     -0.02210588098026
  H   -4.45732158282179     -1.80215196190312     -0.01494296430081
  H   -2.36920903992337      2.93156005259730     -0.05101945702733
  H   -0.50743845969769     -2.96658434165712     -0.03500433755069
  H   3.08117544825159     -3.10130849071428      0.18174678479931
  H   1.64196836391357     -3.98125374945363      0.16315718059512
  H   4.24461427587576     -0.80524258183731     -0.07889409470752
  H   0.76929944185214      3.02104610367175     -0.03760884794556
  H   2.46551034411420      3.55180007388774     -0.05371366465725
