27
Coordinates from ORCA-job ./opt_b97-3c_parallel
  N   -3.13069290941648      2.50531570988083     -0.34168168991066
  C   -2.80470452101658      1.38852063451291     -0.25473691139823
  C   -2.39563560105716      0.06123462216460     -0.11682863985762
  C   -3.27170696434727     -1.05277938921509     -0.17791487525012
  C   -2.55283160081322     -2.23869272321797     -0.12616495788071
  C   -1.19232649976227     -1.90748241578109     -0.05569696200806
  N   -0.13920280542652     -2.73088965223487     -0.03157077195410
  C   1.05693898644555     -2.18294746242986      0.02579037026991
  C   1.32708526737943     -0.78951278140348      0.08370288064163
  C   2.70534381663941     -0.37893412442496      0.07614406517101
  N   3.64172766000644     -1.28790795266221      0.44032985081151
  C   3.17666481227739      0.82716816486638     -0.46158788706990
  C   2.44188377440419      1.96343916743300     -0.72324871006688
  N   1.25687960517647      2.31555891978984     -0.25764005463342
  C   0.38689543131378      1.53025026383290      0.34616292721790
  N   -0.43135892863715      2.11317142859052      1.22532072876809
  C   0.20932842710675      0.10040619765093      0.09110768376994
  C   -1.06485649312783     -0.45142986435320     -0.02743649221241
  H   -4.34232535724839     -0.96228906949113     -0.27369265901407
  H   -2.94992963471615     -3.23933628935471     -0.16014622893949
  H   1.88258146943561     -2.87737451784377     -0.06860997849255
  H   3.38979129765201     -2.08607562347468      0.99076123692831
  H   4.60590496914218     -1.01367143932152      0.47073912272465
  H   4.23178259275734      0.87322174244311     -0.70530800093614
  H   2.93542396049267      2.73961179879901     -1.29979257988277
  H   -0.49368385022837      3.11776472387476      1.21553675788763
  H   -1.22950633713178      1.61505988566979      1.57609948171678
