32
Coordinates from ORCA-job ./opt_b97-3c_parallel
  N   -5.13307925307709     -2.30553773369214      0.10276043008337
  C   -4.11646137811393     -1.73811453667933      0.06513752228114
  C   -2.93722946323438     -0.98639104050855      0.02834559912258
  C   -1.61618557195933     -1.45744405598939     -0.00666509761911
  C   -0.74697841818280     -0.35151682932469      0.01268585144995
  C   -1.56749013458774      0.83247141675198      0.03652908214923
  C   -0.97173648540770      2.10013408685705     -0.06016624778149
  N   -1.74745002590215      3.23090715421980     -0.12115378815319
  C   0.41564851984123      2.18150107378318     -0.05843941682101
  C   1.26349200004904      1.06433006528869     -0.01126782816637
  C   2.63608301614857      1.31090886110868      0.00447819111261
  C   3.74437934185056      0.45522206145660      0.03091032897073
  N   4.98122700059800      1.06085987185644      0.02803420967975
  N   3.82614795043793     -0.87265230017386      0.00630781505739
  C   2.79017410458396     -1.70328643845489     -0.01972003609755
  N   3.16739101444605     -3.02515028924701     -0.00985874136730
  C   1.40662677063867     -1.45940374389050      0.00079803372840
  C   0.66867104381100     -0.28636252808788      0.00296821035735
  C   -2.90936704272415      0.44229963806038      0.06988278833335
  N   -4.02176542926366      1.27412570764421      0.10546416323164
  H   -1.35240667362792     -2.50154428671300     -0.02833052400556
  H   -1.28394255287366      4.06393469909667     -0.44325658832133
  H   -2.66308000034784      3.10460025611566     -0.52537808352158
  H   0.87430487729514      3.16130196321659     -0.11122378515828
  H   2.89664081551122      2.36340186515642     -0.01596592704836
  H   5.74195936402768      0.45229330982471      0.27604799887752
  H   5.04981409157396      1.99779641877142      0.38214332154728
  H   4.13168933926036     -3.19093578533462     -0.23939799086415
  H   2.51684052472021     -3.71230326005949     -0.34460219070794
  H   0.81138755941743     -2.36299898117757      0.02119778738376
  H   -4.89080548865302      0.76194995867313      0.15688974123440
  H   -3.98783758805560      1.96151594085122      0.84491881273275
