28
Coordinates from ORCA-job ./opt_b97-3c_parallel
  N   2.17679697453614      3.50399395850643      0.01567734449341
  C   2.08857193912102      2.34018287852227      0.03169570089074
  C   2.05332542113219      0.94998756709572      0.04923606786985
  C   3.22078677646203      0.11901334206707      0.12127342269481
  N   4.48175945397919      0.56500864639501      0.20956664707273
  N   2.94514650010689     -1.19940630359369      0.12385048074024
  C   1.60508788077606     -1.27586954982076      0.05755114781138
  N   0.92846320487288     -2.41136070760437     -0.03084329209618
  C   -0.40215722411630     -2.34652962557478     -0.08279833874485
  N   -1.03506814228714     -3.57418394598870     -0.18341360113323
  C   -1.15428071298372     -1.14026828606096      0.00887851769719
  C   -2.53002505572398     -1.22952360063798      0.21353640239394
  C   -3.51515824347831     -0.26961130011429      0.24784871669224
  C   -3.37378921367663      1.10841416293002     -0.00311821662570
  N   -4.49158649592028      1.85175356633754     -0.11176183201487
  N   -2.25372532280637      1.84751547839089     -0.12871311844784
  C   -1.01845451776272      1.40296443589350     -0.07999170498001
  C   -0.42392072025650      0.12519100035296     -0.02029626470877
  C   0.97177569070689      0.04770767941259      0.02177271023596
  H   5.22830946127781     -0.10120479654949      0.13182551692770
  H   4.68775581172899      1.53629190792097      0.06342764064618
  H   -1.79220042361614     -3.63242744306662     -0.84276905429814
  H   -0.36295623238975     -4.31422158478942     -0.31179468222946
  H   -2.89329451774391     -2.23203515699843      0.40401809349858
  H   -4.52103749617010     -0.61972885267078      0.44575665210469
  H   -4.38789706217390      2.84289713809699     -0.23751937263781
  H   -5.40965776026719      1.45747239211280     -0.03371564106495
  H   -0.30088368262574      2.21552152293640     -0.11395763888723
