31
Coordinates from ORCA-job ./opt_b97-3c_parallel
  N   1.69589785596751     -2.76785349955216      1.39649828492237
  C   1.67856549888215     -1.70885121444262      0.89591374356057
  C   1.70819904284060     -0.47026397252920      0.26017392665921
  C   3.01574059079618     -0.01903761947135     -0.11783182564116
  N   4.00540124602080     -0.94328051906894     -0.16656378139223
  N   3.42276823964121      1.20154427226321     -0.44421860073330
  C   2.67403555002207      2.30250671464623     -0.31750128869986
  N   1.42779080068390      2.56133348205178     -0.02722133833197
  C   0.39307244077211      1.68148909572695      0.10403319130771
  C   -0.84061850185368      2.29147547578220      0.27414690918652
  C   -2.05604544983160      1.59814768315349      0.25733736163322
  N   -3.25700164009463      2.28832137895903      0.37399491898053
  C   -2.00962123968430      0.22416345330486      0.09666796310951
  C   -3.05979055381171     -0.72648069517067     -0.06843907167054
  N   -4.39168139644134     -0.45035315083748      0.08949789193186
  C   -2.50456249475844     -1.94847081350650     -0.43987485293180
  C   -1.10628884007471     -1.82513259231472     -0.44573309924359
  N   -0.28511783561642     -2.80830292903576     -0.86825519387954
  C   -0.75421703724666     -0.45349012970139     -0.07769536849702
  C   0.46268887079656      0.21904819145822      0.04878997148048
  H   3.87513809568578     -1.86885194039124      0.20013302127017
  H   4.94032883992491     -0.58478879544764     -0.24235666330638
  H   3.25902711036310      3.20318305240399     -0.49512190917307
  H   -0.83218988232646      3.37035995605933      0.34721869564450
  H   -3.15180165327661      3.28763818346259      0.30022999241809
  H   -3.98060425196114      1.96330362611167     -0.24974815149801
  H   -4.99788276001415     -1.25326555139906      0.12649851843119
  H   -4.60849740976223      0.22577395070337      0.80559509384795
  H   -3.04741424379015     -2.85919096995800     -0.64124804961744
  H   0.61556098205607     -2.92168779192006     -0.42615162618126
  H   -0.73145515121053     -3.68480881943885     -1.08177726728666
