32
Coordinates from ORCA-job ./opt_b97-3c_parallel
  N   5.47198426946004      1.42878838837120      0.11072481726932
  C   4.36383304934480      1.07641144658260      0.05316620941694
  C   2.99739858605301      0.72741551482442      0.01873953514491
  C   2.68248633069622     -0.58069475840751     -0.31561443683097
  C   1.47772691315464     -1.27511349642109     -0.33697943621851
  C   1.59510644418827     -2.57251151006988     -0.90185389499588
  N   1.74057830151453     -3.58671722936880     -1.45050439324724
  C   0.16514018238218     -0.82973758418967      0.04022116065505
  C   -0.83526537834875     -1.77914474360121      0.35617091968394
  C   -0.51231267565811     -3.10014911019296      0.74784981434687
  N   -0.34495518090468     -4.17190351069412      1.16322176777828
  C   -2.20871737371360     -1.44821340210826      0.39493537302419
  C   -2.57345095848472     -0.16709717882482      0.11840636355105
  C   -3.83772901801222      0.51097594758171     -0.03450714399257
  N   -5.05674904605025     -0.01953397807582      0.11693882834208
  N   -3.67292024792681      1.80033201011129     -0.35436064846917
  C   -2.33138386598424      2.01257775152506     -0.39937994702030
  N   -1.87289210079666      3.23693072956644     -0.72569351159182
  C   -1.57955108747577      0.83925984138217     -0.09552320828346
  C   -0.20235589629233      0.57740331763351      0.02811913668453
  C   0.67604471256647      1.66270835282713      0.22564115467874
  C   2.05716442560438      1.76931720861968      0.30419753172382
  N   2.57483298368240      2.98636665826795      0.61635270766415
  H   3.53638630088374     -1.18078163409810     -0.60056129210112
  H   -2.91974871377851     -2.22762496055205      0.63134781182541
  H   -5.18230529151600     -1.01049178188351      0.19931130345062
  H   -5.85702105795706      0.53717870686837     -0.12542664830308
  H   -0.93890008507190      3.30935388092833     -1.09362094816120
  H   -2.55333856105803      3.86216122764921     -1.12611633566768
  H   0.16656467842047      2.58166974912938      0.48506825051754
  H   3.55582275344114      3.07834557567243      0.81570358049662
  H   1.97461294413817      3.70069980044719      0.98368803752856
