35
Coordinates from ORCA-job ./opt_b97-3c_parallel
  N   -2.66650378603067     -3.81104247036294      0.60813068530654
  C   -2.32513171375116     -2.71705243043153      0.39812082971289
  C   -1.92185037562795     -1.39672656712015      0.13831884101434
  C   -2.83944010966101     -0.55782845616391     -0.57084200051510
  N   -3.71931439684117     -1.14178134821376     -1.41333323118483
  N   -2.97318123629530      0.73437923320463     -0.39298930872272
  C   -2.13955758962608      1.57580619672266      0.21408634588656
  N   -2.74658186732689      2.59972113839114      0.84177945166012
  C   -0.70014378957102      1.52766400746944      0.15689347133361
  C   0.05228004537200      2.72997663201366      0.05243558112470
  N   -0.60325373926334      3.99930846573688      0.03078869052206
  C   1.42901605323569      2.69888802156537     -0.03163001961065
  C   2.12339141628020      1.49567514890159     -0.06280961616521
  C   3.48424370057878      1.21599848371006     -0.21555850437459
  C   3.63344058528523     -0.17496744453978     -0.26503194075280
  N   4.80347073762013     -0.86597483016930     -0.40206569637859
  C   2.35788383893074     -0.79816484201262     -0.11031105224491
  C   2.17838952106211     -2.16057238947478     -0.32007757677256
  N   2.08190694862112     -3.31337101504138     -0.48665263072659
  C   1.38472424378741      0.24816729218622      0.02592761097443
  C   -0.00199354411260      0.26944983386258      0.19545002673353
  C   -0.67141110042907     -0.96657930335431      0.59946390626479
  N   0.00314293740388     -1.75914359072985      1.44157838922598
  H   -3.77756216376125     -2.14297510470648     -1.46550453298958
  H   -4.52780826845866     -0.61242759870818     -1.68566435038714
  H   -2.18938178023049      3.41471533005812      1.07101026015174
  H   -3.73131747055781      2.71691092820745      0.67465151298902
  H   0.08257290515776      4.73974147043874      0.01137111977413
  H   -1.18509292892135      4.10489636952904     -0.79179919447876
  H   1.97280939471500      3.63156791946171     -0.13265248858210
  H   4.27917299406803      1.94049709117354     -0.29823401405224
  H   4.72034062067484     -1.83153605055694     -0.67624450459454
  H   5.55952682932896     -0.38411688677520     -0.85579997488935
  H   -0.25452746387446     -2.72721075278012      1.54649723165220
  H   0.96067236241785     -1.53410050479171      1.64924158729556
