28
Coordinates from ORCA-job ./opt_b97-3c_parallel
  N   -5.84842600562604      1.14401329474373      0.22308760763356
  C   -4.72829337344556      0.83924608218249      0.17088686744325
  C   -3.37644898194974      0.45758950909003      0.10839616129312
  C   -2.91106010969399     -0.88712821533299      0.06331591449705
  C   -1.52226161711833     -0.84906839212636      0.01379327420714
  C   -0.55866656710537     -1.87103098841010     -0.07711239749003
  N   -0.89828316133580     -3.16505391653570     -0.12327107189287
  C   0.81131934584578     -1.49811109780300     -0.10955311213359
  C   1.76843273379396     -2.53242816843081     -0.13502913825838
  N   2.45398026474596     -3.47168206850029     -0.16464336541672
  C   1.25422538620450     -0.15672027654948     -0.03890693581518
  N   2.56600211855709     -0.02294905189635      0.07619104680810
  C   3.31914690088796      1.07255639398345      0.10374045695610
  N   4.62341935344838      0.81917685323197      0.35254326915597
  C   2.92879851458067      2.40979719558631     -0.11856646844406
  C   1.63841804770024      2.85716489455977     -0.26629128450311
  N   0.46401330110666      2.23901666374999     -0.20112676590793
  C   0.23001614394893      0.93764500288835     -0.06731588031445
  C   -1.11058618355255      0.53083602860826      0.02367017764127
  C   -2.27641480823842      1.32075055505870      0.07519551926234
  H   -3.55543176829507     -1.75201787836603      0.06393092242098
  H   -1.85791909776946     -3.44833356497947     -0.07122361717620
  H   -0.19492722623340     -3.88300501312906     -0.16168713217995
  H   4.91563691573011     -0.13987119075368      0.41194082459487
  H   5.31782315055278      1.54116451301961      0.34325024645848
  H   3.71052812323585      3.15831467640047     -0.17106634899863
  H   1.54058054952446      3.92389328841899     -0.45073508670967
  H   -2.30813201769986      2.39572253109124      0.09032033786855
