26
Coordinates from ORCA-job ./opt_b97-3c_parallel
  N   3.30503011875859     -3.17876556277138     -0.12991325072460
  C   2.43394575937896     -2.41351169771669     -0.09422010511714
  C   1.34351176691428     -1.50982444993497     -0.05336349638899
  C   0.04154803967255     -1.98403467532937     -0.10722274504190
  C   -1.07775700195189     -1.13556976268683     -0.04277640609964
  C   -2.32161848250547     -1.79397050638600     -0.04851377895268
  N   -3.54058759230180     -1.38260793954238      0.24396419892929
  C   -3.86025833339508     -0.10925781831500      0.46753443704782
  N   -3.27469120365565      1.01343387298151      0.13076952559230
  C   -2.00425775482860      1.17767887052739     -0.25533838573157
  N   -1.77030601579724      2.34871081190815     -0.85887195160573
  C   -0.88697163238537      0.30380059519268     -0.00844622330017
  C   0.41826815164853      0.79978115428698      0.06112583450127
  C   1.01193105182596      2.07318459925445      0.14337749818325
  C   2.39526647581909      1.83728664002152      0.20250262151891
  N   3.39301135043292      2.74898396481686      0.28375884634741
  N   2.72347313932847      0.51043286478054      0.12296205154462
  C   1.55989912988134     -0.12558800833020      0.05391919496235
  H   -0.12185285088810     -3.04967061462786     -0.16655751982339
  H   -2.26713951096798     -2.85852234686514     -0.26087761492618
  H   -4.82682233893450      0.02326680150732      0.94523614929295
  H   -0.87601843546252      2.54462967007431     -1.27442082754145
  H   -2.54978858821737      2.95788436120122     -1.03405494990114
  H   0.53367564116465      3.03052246977478      0.26349798668373
  H   3.18199030993906      3.67110427873800      0.61847549857576
  H   4.29831586562717      2.38686679634004      0.52947383377490
