31
Coordinates from ORCA-job ./opt_b97-3c_parallel
  N   6.02081776277390     -1.01817580011469      0.80329920958973
  C   4.89680193945911     -0.77885654241998      0.61916280277770
  C   3.57017272246352     -0.39853366787136      0.38929927702026
  C   2.43105458285137     -1.20705590615297      0.31824201405889
  C   1.30567513882910     -0.39308095472709      0.09896564355909
  C   1.75660230146574      0.96700209082925      0.00300817499224
  C   0.87744655099154      1.95325401679468     -0.37032795775807
  C   -0.48540524815469      1.65849857075685     -0.49339106591694
  C   -1.31644281280729      2.68882503932525     -0.98930459971851
  N   -1.92089942751865      3.55360424282634     -1.47636900584244
  C   -1.00077338507669      0.36090517403013     -0.18628667758401
  C   -2.34925433091631      0.19657168029693      0.17428453521544
  C   -3.09337163443415      1.33059622802762      0.56474706162412
  N   -3.78683630476565      2.16238950551985      0.99179235703643
  C   -3.06225552245031     -1.05314826327269      0.35634314532916
  N   -4.27247135247732     -0.98771231954209      0.94056540215136
  N   -2.71159620040934     -2.26568543494967     -0.02471870187945
  C   -1.49673233547817     -2.60971262720413     -0.46680752266422
  N   -1.46625215579506     -3.80335753060906     -1.09994842385788
  N   -0.30529743058478     -2.03972128164951     -0.32044989781983
  C   -0.03514232008444     -0.75454032698826     -0.12305593858566
  C   3.16927179638718      0.96321328507375      0.18657593849490
  N   4.00757770414074      2.00545515344399      0.15513867414908
  H   2.42080771366445     -2.27855677662976      0.42308266715836
  H   1.19911143043406      2.96367306788037     -0.58582660900137
  H   -4.69867720219358     -0.11488770084860      1.19592962938041
  H   -4.81388476719691     -1.83156689444049      0.98027043814725
  H   -2.28914949394005     -4.37652992381038     -1.09399187478577
  H   -0.57490424376434     -4.21790640328884     -1.29793244436184
  H   4.98651439820109      1.87313112234485      0.34068738739840
  H   3.66999429778398      2.94840662117021      0.11105591959110
