27
Coordinates from ORCA-job ./opt_b97-3c_parallel
  N   5.41888330550506     -0.28515848752362     -0.00097114715560
  C   4.25575446876229     -0.33075818153999     -0.00086900751149
  C   2.84531909868806     -0.31176150520219     -0.00083513405187
  C   2.19841884819949     -1.56150879679683     -0.00132794625592
  N   0.94654377493773     -1.92719150597948     -0.00113990035240
  C   -0.17416587883458     -1.16449853261368     -0.00066660339151
  C   -1.34731655563374     -1.90054502727592     -0.00005223488008
  C   -2.63505315992451     -1.33480824015735      0.00013753861937
  N   -3.71594898098534     -2.13724940954821      0.00065037641037
  C   -2.74342309462945      0.06429461776863     -0.00043540400690
  C   -3.81501952507871      0.96197813301292     -0.00067204963570
  N   -3.38141737358858      2.24740143911696     -0.00139384437936
  C   -2.03865242809394      2.19771331155448     -0.00159990187230
  C   -1.55605489511418      0.86921207266210     -0.00104754186918
  C   -0.25261639996888      0.31917266141501     -0.00081924044988
  C   0.83454435386702      1.17676719382712     -0.00046915323061
  C   2.21880203708199      0.95919476164321     -0.00040653223045
  N   3.00987149887230      2.05747556761588      0.00005340069555
  H   2.88920211007897     -2.40144778571491     -0.00188505878604
  H   -1.23345070088969     -2.97559605562947      0.00009448559307
  H   -4.64377653431365     -1.75937774628729      0.00121578416870
  H   -3.62015985955427     -3.13515994237504      0.00150650617590
  H   -4.87465709091937      0.74895711261098     -0.00039539018144
  H   -1.46834158023531      3.11518476709400     -0.00226512579491
  H   0.56624983637178      2.22601976281934     -0.00017908259559
  H   4.01105600294504      1.97880057389159      0.00004366826799
  H   2.61401974975451      2.97751280291176      0.00024285680027
