29
Coordinates from ORCA-job ./opt_b97-3c_parallel
  N   -3.27895970028071      2.16401754778056      0.02106875109282
  C   -2.70774201044544      0.90101072019497      0.01918247983944
  C   -3.60254874272401     -0.17905386670860      0.09424068846228
  C   -3.25993466136304     -1.52057329480387      0.09394939654652
  C   -2.02197806291660     -2.11793602160182      0.03308417650909
  C   -0.73378176074527     -1.53536117825299     -0.01502549497711
  C   0.36419628788009     -2.41031068802442     -0.05412466944026
  C   1.68954804595359     -1.99175155596971     -0.06024537110006
  C   1.95627830400855     -0.64434395075927     -0.03329110842179
  C   3.16916372129299      0.11259199912220      0.00675390341070
  N   4.42666449006005     -0.42411384601835      0.04876242118861
  C   2.84980422844827      1.47307865312344      0.07645554839180
  C   1.44877687540890      1.59900702561373      0.06197945656584
  N   0.71820230928227      2.72590739136577      0.08217315290591
  C   0.86350880102362      0.28718126908080     -0.01116482122693
  C   -0.47829010222694     -0.09023287236086     -0.00779813034755
  N   -1.38374235394595      0.92994429119212     -0.01687849036457
  H   -4.23378315950885      2.21867410340477     -0.28890409868193
  H   -2.68964320166135      2.87684705154632     -0.37472399435896
  H   -4.65659310229243      0.06301573773452      0.14403883877601
  H   -4.09824925168739     -2.20789847410256      0.13751981767324
  H   -2.02649711081636     -3.20136286248277      0.03461565661854
  H   0.15334175412601     -3.47173153855701     -0.06405205839787
  H   2.47950052935029     -2.73413673496305     -0.06492585978549
  H   4.52704529608334     -1.35304280035455     -0.32217762603277
  H   5.18253633433087      0.18470970586148     -0.21366698308678
  H   3.55529876694280      2.28862189973388      0.12405946641012
  H   -0.27989489686830      2.55972355020156      0.19209522791953
  H   1.13108400129090      3.59193651450371      0.37875174331158
