29
Coordinates from ORCA-job ./opt_b97-3c_parallel
  N   -6.13341662827627     -0.13975346273715     -0.35327471810005
  C   -5.00566251208383      0.13573943070122     -0.28174865848628
  C   -3.63033299185009      0.37910219512166     -0.18642564016622
  C   -2.96343479451694      1.60042234361021     -0.14880007990036
  C   -1.57093779383499      1.35877635310466     -0.04645828733331
  C   -0.49837560620917      2.19081851096724      0.14875232475511
  C   0.78977652225423      1.63952777603001      0.26556807700053
  C   1.82112568187594      2.54591477761748      0.61218359586877
  N   2.58986234667738      3.33468495459647      0.98063602260372
  C   1.04369251075803      0.24596206059775      0.12819145579926
  C   2.36060508007898     -0.21302685694396     -0.13949945717404
  C   3.30195195496190      0.68871475491463     -0.67912784404576
  N   4.14863588584727      1.29335678165042     -1.20170359969370
  C   2.86310027213426     -1.54679172960871      0.00135109023906
  N   4.15790223095329     -1.76687926690706     -0.26815715386321
  N   2.22362567435654     -2.65677380055109      0.40249497421907
  C   0.91936374664798     -2.78562066351028      0.51709806028161
  N   -0.11948861078740     -1.99764888728636      0.30386616926218
  C   -0.11457875276242     -0.65333778960294      0.13006841969200
  C   -1.36040607018329     -0.05653807118390     -0.02868521624234
  C   -2.64911430290422     -0.67139832679933     -0.08809489149875
  N   -2.87499629090538     -1.97246158185362     -0.04445727610433
  H   -3.43930902973901      2.56702084752153     -0.17800215538030
  H   -0.61722111757708      3.26104194281488      0.23837249030724
  H   4.50047866939642     -2.70330036273097     -0.15093855731840
  H   4.78151000909589     -1.03911377607767     -0.57056635172632
  H   0.62758598783480     -3.78654382161569      0.82633021231343
  H   -3.80976390107788     -2.34533436258721     -0.03150991105972
  H   -2.05418090166708     -2.55619111764916      0.10292789245219
