34
Coordinates from ORCA-job ./opt_b97-3c_parallel
  N   -5.90543244867267      0.76533485374419      0.56408827950345
  C   -4.86439633122523      0.30401046667877      0.32412452583964
  C   -3.57563879908203     -0.20819195398306      0.05275984122254
  C   -3.52341921515463     -1.47503073419030     -0.54333649091073
  C   -2.47277482786861     -2.32936474451212     -0.65907975222176
  C   -1.14630479049499     -2.18093236426696     -0.18765557585322
  N   -0.45482498800450     -3.31346265916201     -0.04907063887527
  C   -0.45630548149614     -0.92663058676817      0.03703369720945
  C   -1.09142182200805      0.38374199554409      0.02573730378865
  C   -2.47783280815900      0.59920093370110      0.42082701307357
  N   -2.74733380102738      1.66952101748239      1.19273718455996
  C   -0.28407420875379      1.53184894977933     -0.16910258411855
  N   -0.85778525057483      2.80123466745514     -0.31269557713345
  C   1.12279588315624      1.45090254963684     -0.18212942014366
  C   1.86696993404293      2.62117583428804     -0.44804874290839
  N   2.40668952180210      3.62377893515759     -0.68009533427294
  C   1.74629338116081      0.22748828470635      0.05007577421375
  C   3.08529360901318     -0.18976205236016      0.12642760774983
  C   4.27260814343351      0.54269955751033      0.10945516634592
  N   5.31151242770684      1.06841424074992      0.11655404480753
  C   3.02085384743123     -1.60581412326352      0.26768963608201
  N   4.07970440836180     -2.43697839248884      0.35333144542351
  N   1.75452246320599     -2.06072163604498      0.27412628974097
  C   0.94428717891562     -0.96365108956951      0.15019441662395
  H   -4.47736132761176     -1.85572722739097     -0.88507783529004
  H   -2.70200214711351     -3.30476728284963     -1.07035904102638
  H   0.56059294709798     -3.25105952961345      0.13401453419423
  H   -0.88378720880957     -4.18518628823806     -0.30501755880621
  H   -3.70688082012586      1.92068910758572      1.36708785713035
  H   -2.06506910402824      2.41115946132239      1.25210889077970
  H   -1.64424441149991      2.82734198232739     -0.94356627749031
  H   -0.18839991821540      3.51449097498702     -0.56121086551331
  H   3.91322286999514     -3.36992143427867      0.68493421585301
  H   4.97690772250162     -2.03892463067597      0.56960835962181
