34
Coordinates from ORCA-job ./opt_b97-3c_parallel
  N   0.04936376516400      4.68028139403223      0.45013114150014
  C   0.10131733660227      3.52619009301019      0.31389774144661
  C   0.20147508829432      2.12911630234625      0.15132319775540
  C   1.45335258585617      1.51626940511294      0.23410323316098
  N   2.58128490774982      2.33099190001031      0.39573951380098
  C   1.58869810221765      0.09573967959335      0.07835542789090
  C   2.79246995576325     -0.45493784270502     -0.46726089769657
  N   3.83330855469182      0.35945212173359     -0.80313006611093
  C   3.02561987281805     -1.81236885092223     -0.79338993824570
  C   2.37625891642594     -2.94008604167658     -0.37268156137285
  C   1.25135631597760     -3.06130197101746      0.42858897398477
  C   0.37119014330016     -2.05312959089806      0.76437013088516
  N   -0.58999674068335     -2.32617706607873      1.68033769606236
  C   0.36532668715425     -0.69382088502613      0.22145158961787
  C   -0.85888935084668     -0.07799370373723      0.01233010843414
  C   -2.20382063013913     -0.57521487236037     -0.12774936918441
  C   -2.64117040141397     -1.88548568108658     -0.28605791461398
  N   -3.05165069656716     -2.97369151027113     -0.39611926788153
  C   -3.04754244844633      0.54759375046145     -0.33448534571195
  N   -4.39271924368690      0.47748003216725     -0.51678668876362
  C   -2.27875093229969      1.73130403661672     -0.28306930909012
  C   -0.95731689895324      1.36497904023010     -0.09139975010137
  H   3.20508188788874      2.01262991518764      1.12281878577170
  H   2.34903974524259      3.30366159442087      0.53656880222255
  H   4.53564000586143     -0.02139896759777     -1.41028040133268
  H   3.68444506499028      1.35897496039573     -0.83224652880484
  H   3.92413152789737     -1.98586044667672     -1.37349109735566
  H   2.84158757557582     -3.87448460325932     -0.66513669199351
  H   1.02902730992509     -4.04910115346352      0.81362410908502
  H   -0.84257476869352     -3.28648736722909      1.83828570950553
  H   -1.34612249078744     -1.67312178177042      1.78615244854185
  H   -4.83815649997711      1.25027226638116     -0.97843791706299
  H   -4.77775661503244     -0.42313094249456     -0.74859495226570
  H   -2.66043261836918      2.73711055507113     -0.35442305497755
