29
Coordinates from ORCA-job ./opt_b97-3c_parallel
  N   4.83107838996051      2.02977939587772      0.00900639982892
  C   3.77967087710011      1.53199328299141      0.00643072232421
  C   2.53409525147316      0.85981156040192      0.00279374575203
  C   1.39947211082140      1.68607094778257      0.00313823422369
  C   0.03923786367731      1.43815737946124     -0.00008681589327
  C   -0.80898821761782      2.57685882076848      0.00139811518212
  C   -2.17887717571046      2.49792875081786     -0.00231788437190
  C   -2.79995596027251      1.24324456907199     -0.00904754372902
  C   -4.10644184568524      0.79441358007900     -0.01602116645031
  C   -4.00576029550972     -0.62654879828358     -0.02089457245287
  N   -5.03056638287415     -1.50668149237568      0.01133815109857
  N   -2.72940313204524     -1.07437729529634     -0.01557804209334
  C   -1.96913964854921      0.03734815093676     -0.00711353977573
  C   -0.56618956418188      0.11190626983787     -0.00530695036814
  C   0.12714618848718     -1.10051612405497     -0.00569146127165
  C   1.47043834788369     -1.42745466349366     -0.00406336404443
  C   1.77080172514464     -2.81311822968749     -0.00700490792708
  N   2.08349973353814     -3.93291957149742     -0.00990718903934
  C   2.61022888304166     -0.55367561373600     -0.00048204247839
  N   3.82291024754575     -1.12762834853678     -0.00045737735696
  H   1.65478845333272      2.73848556823882      0.00685204637921
  H   -0.33868353986637      3.55101119363213      0.00623260480448
  H   -2.77024768014341      3.40452457773504     -0.00137584143129
  H   -5.01113169987684      1.38038477314522     -0.01055635560800
  H   -4.80849998315411     -2.46833295272107     -0.17848739079821
  H   -5.95045189219038     -1.19923735468802     -0.24410336664020
  H   -0.53712219127253     -1.95641743532487     -0.00813763282894
  H   4.65895764710128     -0.56898493924592      0.00329430028236
  H   3.92202487924228     -2.12810069783618     -0.00121432951654
