28
Coordinates from ORCA-job ./opt_b97-3c_parallel
  N   -4.90349499875094      1.19851575065206      0.67821298759611
  C   -3.86184794355671      0.72516394174903      0.46040776031380
  C   -2.61780549016912      0.14928870436832      0.20163312342678
  C   -2.39945904911200     -1.20283614528895     -0.13446791908722
  N   -3.36101178706122     -2.11989976302411     -0.31032321359982
  C   -0.99624665115725     -1.39317673538846     -0.26770947597738
  C   -0.24768325421958     -2.50910262167820     -0.53223596933740
  N   1.08199796269384     -2.51494417016907     -0.43817148255345
  C   1.73220098954430     -1.37800847326882     -0.13408747933631
  C   3.09127834236074     -1.57055192434513      0.22387765344047
  C   4.05006442404654     -0.69298034137140      0.66473062046482
  N   4.10927822840198      0.64829871211826      0.68365591824485
  C   3.14709389999046      1.40571616522709      0.20134705023593
  C   1.83116136682005      1.13660236408140     -0.21320682490837
  C   1.21251483291858      2.22818612772152     -0.84497490387736
  N   0.68566659547073      3.13500423731352     -1.35658863046231
  C   1.06226510154688     -0.08509827286836     -0.09303374098349
  C   -0.32702498150307     -0.12959752393890     -0.03891129657035
  C   -1.36839305930353      0.82981391230843      0.25578808649659
  N   -1.26437065398904      2.10159164586798      0.65615205970392
  H   -4.31389317618426     -1.89977550858433     -0.08010370063756
  H   -3.13280261440689     -3.08989511918812     -0.41769003244316
  H   -0.70224207186971     -3.45674540238732     -0.80513337399375
  H   3.36770589989134     -2.61652149516675      0.24259953170310
  H   4.96029216753039     -1.15798041946396      1.03207037749045
  H   3.42728486406224      2.45200523049429      0.10426472345311
  H   -2.12623912224889      2.60334920090918      0.80383522787836
  H   -0.50233662614621      2.67494382612152      0.32330246111976
