28
Coordinates from ORCA-job ./opt_b97-3c_parallel
  N   4.12963094818868      1.53237195780484     -0.46538223145945
  C   2.90257201086272      1.03659543012546     -0.13178594279761
  C   2.78298548736559     -0.31094472907109      0.17172059953052
  C   1.63942972715484     -1.10569597149914      0.31282146911452
  N   1.85733848641410     -2.34704385886553      0.80602840630706
  C   0.28032133434614     -0.73570901576521     -0.00660422882869
  C   -0.71923438815185     -1.72458359662618     -0.20045592619743
  N   -0.37694175625877     -3.09161263139668     -0.41238702120663
  N   -2.02862563407285     -1.49861623428092     -0.19495844603841
  C   -2.46459651739214     -0.25586678960934     -0.03713033742331
  C   -3.77501145252297      0.22540594565823      0.01704517303308
  C   -3.68738109808183      1.62011657466281      0.09499081145427
  C   -2.34238238562754      2.04019630218787      0.09211843337861
  C   -1.54127483897209      0.89679232960538      0.03045694827925
  C   -0.15597816118845      0.64336825653512      0.02817744054122
  C   0.67730546477780      1.79250772778313      0.04649834570141
  N   1.95700769621073      1.99918558669640     -0.09681446556341
  H   4.23220022530865      2.52917217114910     -0.39077311888944
  H   4.95286672519213      0.97859875351588     -0.31660752489824
  H   3.72102224289816     -0.83698475456035      0.31943737604659
  H   1.11776304414916     -3.03826378271699      0.70020502560628
  H   2.80130355675786     -2.67307649215336      0.90461668988438
  H   0.15215634157171     -3.21604854051644     -1.26696594627884
  H   -1.24468968213956     -3.60418981307231     -0.49802130057741
  H   -4.67083559623360     -0.37178965697959     -0.02064006277790
  H   -4.53281846368561      2.29114989400972      0.14766151047277
  H   -2.02240221982121      3.06867807047194      0.14197877953882
  H   0.12125284615021      2.71784936560730      0.14764214084799
