28
Coordinates from ORCA-job ./opt_b97-3c_parallel
  N   0.02878245756725     -3.62920881445603      0.76857505150186
  C   0.44213032714876     -2.57316289699687      0.50971377072116
  C   1.03569436960879     -1.31991084943296      0.21831330342128
  C   2.42473440514692     -1.43011389722954      0.13304630379873
  N   3.40424303773951     -0.57267993756440     -0.09489601593589
  C   3.24730133358670      0.75172152079322     -0.11555371157150
  N   4.41476129548777      1.42672777533077     -0.33529171580569
  C   2.10317513526461      1.52782657684774      0.13080567475468
  C   0.75152918004597      1.19718064540569      0.19886021347522
  C   -0.13806832350468      2.29058010273681      0.35324784306913
  C   -1.50169002585514      2.15524632574460      0.28297275764828
  C   -2.04996594844827      0.90549215740694      0.04424063729015
  C   -3.37804135261961      0.47642141449278     -0.13044711854038
  N   -4.49818969527132      1.24733792143951     -0.13193606765234
  C   -3.35596530916043     -0.93097668007532     -0.38470093848806
  C   -2.06016309695922     -1.37220325480542     -0.34052490414028
  C   -1.18929566506393     -0.25342676473806     -0.06936824273294
  C   0.18882420617730     -0.15617203303519      0.08255667887452
  H   2.78610807591621     -2.44680685436091      0.25541965804012
  H   5.19007595946195      0.86329262732756     -0.63771148219353
  H   4.38973312431029      2.37607562653154     -0.65825673351847
  H   2.30151646053612      2.59102419293981      0.20884021824928
  H   0.29180986689937      3.27252872203025      0.49286851474902
  H   -2.12607493417616      3.03579698870657      0.38669479273913
  H   -4.44950140301877      2.15613804049087      0.29356265783624
  H   -5.38140164879381      0.78461228038439     -0.00898237528291
  H   -4.22569887273759     -1.53874644899330     -0.58259492897117
  H   -1.75825830768937     -2.38939215502246     -0.50542480573523
