24
Coordinates from ORCA-job ./opt_b97-3c_parallel
  N   2.11673977737506      2.85291039460633      0.31510605668877
  C   1.32630210474844      1.77314219896007      0.10191471963376
  N   0.00032805108415      2.04813316929405      0.08182925736574
  C   -0.90423303373222      1.09086158846749     -0.01450394847826
  N   -2.16017287932617      1.52276583525501     -0.27429449703449
  C   -3.25234402055693      0.79704773401966     -0.30187458338828
  N   -3.56266452106003     -0.44454468483281      0.09013882973097
  C   -2.64744317730140     -1.36636493949267      0.36628231928873
  N   -1.33463738890936     -1.41038045836302      0.24148939587264
  C   -0.51286354210942     -0.34912230370897      0.02754540626296
  C   0.83906515104748     -0.57938510732902     -0.08656903610801
  C   1.57031601565282     -1.82072041689534     -0.09280885867077
  N   0.97139894405564     -3.01921513675352     -0.08495503749379
  C   2.94492556535514     -1.50813936393143     -0.11615109444723
  C   3.08232938561169     -0.11992030800960     -0.09283744118824
  C   1.80734831114024      0.47928843712427     -0.07275455720584
  H   3.09842330520004      2.80102097680908      0.11677049356565
  H   1.67452557448286      3.75000715378174      0.21539561638598
  H   -4.11364941727109      1.34148383931958     -0.68274837089202
  H   -3.07280966278185     -2.30484561533736      0.71521829727828
  H   1.50148615168940     -3.85640700214523      0.07604208195035
  H   -0.02655037560467     -3.00723120407627      0.10112823575159
  H   3.75114184616349     -2.22411075158377     -0.13940457063640
  H   4.03085024164643      0.39618689382175     -0.06865001323217
