33
Coordinates from ORCA-job ./opt_b97-3c_parallel
  N   -3.53096761165194     -2.83845082700519      0.23411302451768
  C   -2.80493964761948     -1.93170859269332      0.16019693645401
  C   -2.08261038784005     -0.72107471505133      0.02929233466039
  C   -2.86052681244574      0.39863771766265     -0.37394071047681
  N   -4.14478306481903      0.15182710831538     -0.76526506667363
  C   -2.45253601883879      1.72912173788949     -0.42168374477418
  C   -1.26837493700825      2.30308867407021      0.01503011675472
  N   -1.25140905618061      3.67229372902911      0.08344087323981
  C   -0.05780102218187      1.62268627794058      0.33317221738669
  C   0.90832334656275      2.41289929932854      0.96386887568533
  N   1.69614827731730      3.11589531262319      1.46568633544392
  C   0.29209373013313      0.25687441995195      0.07718690344543
  C   -0.67864437312229     -0.84207668265824      0.19146464847861
  N   -0.28460313661795     -2.09078078484036      0.45043425634937
  C   1.00504018482725     -2.43805539923089      0.41688750823355
  N   1.27201554985278     -3.72105212781580      0.77550348362104
  C   1.98594288482297     -1.52600649429211      0.02737976435389
  C   3.33692447627062     -1.66269318763476     -0.32552095741830
  C   3.83033280301048     -0.42072632348088     -0.71178433459660
  C   2.81314686200913      0.54041781582980     -0.58470737568428
  N   2.93624306661946      1.82989148430246     -0.99479982623046
  C   1.61060516390101     -0.14606998297837     -0.12244936788042
  H   -4.79374575576024      0.91611436568024     -0.78489291806795
  H   -4.54263911707412     -0.75456907109470     -0.58619713010355
  H   -3.20414869319291      2.43062702420273     -0.76445382772751
  H   -2.13007974589065      4.13902839283760      0.21545408802097
  H   -0.47136494384238      4.11834719941053      0.53497882609512
  H   0.48519732539822     -4.34738063619442      0.77343562701610
  H   2.16166024801585     -4.11886838188278      0.53843697673742
  H   3.91318324103734     -2.57605468419213     -0.30872408648994
  H   4.83251371230292     -0.21198170182368     -1.05289323896023
  H   3.86139267955202      2.08640456206696     -1.29867249210273
  H   2.49965348405290      2.55360508822737     -0.44258868390748
