31
Coordinates from ORCA-job ./opt_b97-3c_parallel
  N   -3.06571261185780     -3.30422512073104      0.29903724818856
  C   -2.23968763718759     -2.49248493177020      0.22847613245122
  C   -1.18973927236058     -1.54283311118300      0.15014983667303
  C   0.11908633886563     -1.99384231998202      0.14830666424520
  C   1.22434193763835     -1.12619328811553      0.08573245731965
  C   2.46005330098786     -1.80041295267931     -0.03382505036846
  N   3.68847488997851     -1.41992599767647     -0.27548115512034
  C   4.11792933956681     -0.14809207701273     -0.26479306583299
  N   5.42048735510871     -0.02959305747921     -0.63151190698008
  C   3.45402833988603      0.99814297804658      0.17737785115481
  C   2.09596188228235      1.21480491158483      0.37912243019367
  N   1.76077714265195      2.44259263615331      0.85091004172350
  C   1.00601924934870      0.30374963720859      0.10133649678671
  C   -0.31327904276569      0.77271333849771     -0.00119010627540
  C   -0.87120158650142      2.06853546539390     -0.15308500997792
  C   -2.25906655082016      1.94609966467404     -0.21091445188527
  N   -3.17069189743092      2.94206241419028     -0.34278384636397
  C   -2.62201549323258      0.56400215692052     -0.06371889988342
  C   -3.95064689121658      0.13559291975401     -0.09514235324900
  N   -5.09084793045360     -0.09691206283205     -0.14467664233529
  C   -1.43680284051411     -0.16745995648804      0.03735045463028
  H   0.29759726163729     -3.05830289074459      0.17170494696015
  H   2.36673536924061     -2.88176896931910      0.02122172039864
  H   5.86283217242136     -0.85902332629992     -0.98583085510859
  H   5.79794333703977      0.85712939167409     -0.90800928203729
  H   4.09086020469362      1.85712743990184      0.35989237694333
  H   0.83391873601408      2.57033483525793      1.22405643157314
  H   2.48285125303542      3.00827785864897      1.25887462449476
  H   -0.34301736207287      2.98460866779909     -0.35308009307812
  H   -4.10895831016635      2.68156545543884     -0.59696624948753
  H   -2.86240676821789      3.82590881536974     -0.70515813795327
