36
Coordinates from ORCA-job ./opt_b97-3c_parallel
  N   5.79607978613435      1.68051850061642     -0.16422870157465
  C   4.69494432297024      1.29955092739723     -0.10527192803012
  C   3.37087029865254      0.84159086807220     -0.04245432540848
  C   2.33955247317527      1.77352055320582     -0.31432112602889
  N   2.72570128326026      3.04527388124115     -0.62848989178916
  C   0.96278113147328      1.55352356473768     -0.23093441350555
  C   0.21125670919726      0.39617212312840     -0.00858012845611
  C   0.79922896678384     -0.94860588228951      0.00854472556998
  N   2.06956774537258     -1.25555115463901      0.23441236802028
  C   3.16311725455724     -0.51935334766499      0.32627327747272
  N   4.22739325321037     -1.20845231232562      0.80136770960369
  C   -0.05519548849086     -2.06650405381012     -0.16100217158421
  C   0.51243476062234     -3.35613010202346     -0.16634413964247
  N   0.86047246263167     -4.46620077216752     -0.18174988886254
  C   -1.46983848152669     -1.96680780435941     -0.21223444252663
  N   -2.23892384285715     -3.09307161931144     -0.34640501461436
  C   -2.02871285340892     -0.70077639064451     -0.10826915334020
  C   -3.37605475544039     -0.28028283052868     -0.09933272360409
  N   -4.47999465610687     -1.06071004643815     -0.30253591151986
  C   -3.40042654160184      1.10556359581651      0.19938725031615
  C   -4.54268923996573      1.89227689957439      0.33367128790220
  N   -5.49815027523447      2.55057903574020      0.44702588599732
  C   -2.06005985610912      1.55680030855613      0.32477412954114
  N   -1.71876308487735      2.84253289605928      0.60654133413877
  C   -1.19001056000616      0.45526221030784      0.09117959568292
  H   3.68369306326426      3.21943270699133     -0.87905518555930
  H   2.05212583005524      3.65699571768981     -1.05085084876617
  H   0.37719895454192      2.42761735036353     -0.48005487942557
  H   5.15172903410568     -0.81633276897512      0.79708217160585
  H   4.12747330444871     -2.20600122858362      0.86037013076638
  H   -3.11826536864726     -3.08080321376300      0.14487389083940
  H   -1.74877123083901     -3.96943698143337     -0.24791137135955
  H   -5.34927436085694     -0.55779702346068     -0.39281170979056
  H   -4.38235254730747     -1.78151587111398     -1.00047287044775
  H   -0.82544851462828      2.98532559367996      1.04961096161502
  H   -2.45349429063817      3.41991475706534      0.98456179325776
