29
Coordinates from ORCA-job ./opt_b97-3c_parallel
  N   4.35427598485462     -2.27139582529297      0.30862137162609
  C   3.34528809400825     -1.70370995293743      0.22746789673843
  C   2.11743835059495     -1.00000406340372      0.12688923382401
  C   0.92334725181316     -1.69203405936654      0.15713486600600
  C   -0.33387839328177     -1.05237807136581      0.07525469312140
  C   -1.42217544343152     -1.94869083956079     -0.01126936359092
  C   -2.76730210206084     -1.77794095688888     -0.16275729356388
  C   -3.48666996046517     -0.57256199502349     -0.12656703141268
  N   -4.85315013072785     -0.65883225829587     -0.25010991012630
  C   -2.94438155642772      0.67682622005715      0.14369028309335
  C   -1.62649037711165      1.11369864359942      0.27118888868203
  N   -1.49716521806844      2.42154486031309      0.62454895651875
  C   -0.39020765713385      0.39302839487947      0.02994940492512
  C   0.82062991765978      1.09718914462561     -0.11478382326023
  C   1.15430785215429      2.46248606743728     -0.33941646005788
  C   2.54410348435216      2.56654583633626     -0.40809007280208
  C   3.13659485284222      1.30941138813854     -0.20595989939154
  C   2.10789211333667      0.38959955613499     -0.04804394043494
  H   0.94764969753371     -2.76906357521277      0.22830338736705
  H   -1.11444490266665     -2.98752898212342     -0.01103017489109
  H   -3.35382564563898     -2.68116822426600     -0.28293600316647
  H   -5.35347760640951      0.17515033554869     -0.50124044865260
  H   -5.22407121939310     -1.49344093431849     -0.66773940702379
  H   -3.68151495125250      1.46187239588130      0.28199016917106
  H   -0.59527443672617      2.72781035169211      0.95562680401780
  H   -2.29140334908256      2.87811346492746      1.03557495550020
  H   0.48068750503369      3.26830160702639     -0.57431669505115
  H   3.08099892667200      3.48312141790536     -0.60421901727924
  H   4.19068929911877      1.08413783695367     -0.20160760068604
