30
Coordinates from ORCA-job ./opt_b97-3c_parallel
  N   6.26409553423208      0.82124468954012     -0.89745419311116
  C   5.19795059483015      0.43198815584316     -0.65200087700961
  C   3.91285908078145     -0.05768703765539     -0.35569644516577
  C   3.60202315584178     -1.41239241300759     -0.05295614468828
  C   2.22520575988073     -1.49748004101413      0.12813197852184
  C   1.39867357889309     -2.57202537866385      0.42193849675336
  C   0.03677373366754     -2.39222545056328      0.45338237543079
  C   -0.58463216339807     -1.14578738500076      0.22032612604187
  C   -1.98936458808220     -1.18303744454287      0.01470447046543
  C   -2.56840503273814     -2.47786748485083     -0.04431674803526
  N   -3.13414315068910     -3.49027383607303     -0.12153746559518
  C   -2.95749774897999     -0.15983398396746     -0.20979876036870
  N   -4.20257988089206     -0.52462561346995     -0.56563119540070
  C   -2.71956003169848      1.22747857994729     -0.01960994863803
  C   -3.84794357952293      2.07556198366605     -0.12972603944587
  N   -4.80687902377888      2.72310282939342     -0.23792943430621
  C   -1.52009351388449      1.84652320942276      0.29129117895247
  C   -0.21734600112654      1.36796643827415      0.35656060571353
  C   0.69469671084732      2.39688250689866      0.72184675280631
  N   1.35537601361495      3.29252052780816      1.05242304650589
  C   0.28262710942956      0.04985569968242      0.13812142755448
  C   1.65405274537146     -0.17725628831076     -0.02969935441439
  C   2.73979008024093      0.69678148772092     -0.33362908135591
  H   4.31407116779963     -2.21868659529704      0.01235827615956
  H   1.81218205027617     -3.55781802346338      0.59001141992248
  H   -0.58685575003907     -3.25687237719704      0.61413367597484
  H   -4.93104743198535      0.16276874261359     -0.65092029867102
  H   -4.46518709924152     -1.49203982678440     -0.63664340517948
  H   -1.61200900387502      2.90682761987329      0.48112718283766
  H   2.69656113702500      1.74572979077772     -0.55811084205490
