34
Coordinates from ORCA-job ./opt_b97-3c_parallel
  N   -2.31926336658809      3.85058896853372      0.39500008917039
  C   -2.05992455456074      2.72534008497335      0.23701320489720
  C   -1.81473983906779      1.34961562980593      0.04517360865380
  C   -2.96836451355847      0.60981764186826     -0.35453451824467
  N   -4.06755870977787      1.33514224441767     -0.73962912000842
  C   -3.09988506514926     -0.76747948561095     -0.41539474466078
  C   -2.22438705833606     -1.75605034827214      0.03228310708561
  N   -2.75476418244358     -3.01629646514290      0.12366217643759
  C   -0.85034334954284     -1.59404768235099      0.33350289834152
  C   -0.26093993686971     -2.72492043344444      0.93423877213314
  N   0.09829130849668     -3.70153289692524      1.46109622973111
  C   -0.00284133884366     -0.46828584961184      0.05536009646472
  C   -0.45553737901166      0.92816278997181      0.12649853930005
  C   0.51343200948653      1.92335994851819      0.31659401612631
  C   1.88276222388123      1.68786105164999      0.28237191918827
  N   2.78381668678330      2.71899594036110      0.48009252555898
  C   2.31927086502316      0.40147628948197     -0.03488223811639
  C   3.58885386085030     -0.12474276472667     -0.33784710555167
  N   4.76566279086887      0.57114582377866     -0.40023041221076
  C   3.43757521620089     -1.52398178521356     -0.58602208250771
  C   2.11051683307309     -1.84948677698998     -0.46147391751317
  C   1.36478723506102     -0.66473567264662     -0.12827209795943
  H   -4.08892427414285      2.32025668133771     -0.53919709168831
  H   -4.96073062837228      0.87979779011457     -0.69719004307076
  H   -4.05865904107754     -1.12800603649038     -0.76914864808334
  H   -2.20657873452244     -3.73056021096726      0.57299006706069
  H   -3.74441488595720     -3.09065717945504      0.27296925382269
  H   0.18186885090392      2.93805383010383      0.48284844744348
  H   2.37629449616549      3.56465155085330      0.84610140236644
  H   3.60938278418633      2.45852114241228      0.99693907487032
  H   4.69120202916414      1.53654640787954     -0.68155899361595
  H   5.53022723333689      0.09512203656749     -0.84940523506544
  H   4.23638118550199     -2.19437302488981     -0.86379913328310
  H   1.69633994293948     -2.82568707199239     -0.64123247357239
