31
Coordinates from ORCA-job ./opt_b97-3c_parallel
  N   -5.76405965686552     -0.45423146360625     -0.43237698036043
  C   -4.67203811408711     -0.09361715963880     -0.25505809019841
  C   -3.32682563373054      0.29273561080123     -0.06311202063043
  C   -3.13095214775648      1.57992053136588      0.44316777380883
  N   -2.06780051645336      2.33546841494377      0.50034514104634
  C   -0.83078659110565      2.00440910293082      0.09364484440736
  N   -0.06531717558084      3.05640289830373     -0.17496395878021
  C   -0.21716655850396      0.68762468249533      0.02617252694832
  C   -0.93724862528986     -0.57578288031514      0.03158124143512
  C   -0.15919622917236     -1.76068470150859      0.21566196191217
  N   -0.76263059849348     -3.01976098464566      0.37923726647347
  N   1.16563159077909     -1.80992622392390      0.23295212268764
  C   1.82598269365895     -0.67130022554233      0.06564290448649
  C   3.20489415271324     -0.41617833490790     -0.00227807969534
  C   4.28352369770686     -1.29682392926957      0.05956368097622
  N   5.22858189051512     -1.97519410277814      0.11090781792898
  C   3.30505526907161      1.00430448215489     -0.11069027773816
  N   4.45011184781507      1.69835086446980     -0.24537412948308
  N   2.10222795268704      1.61291947791239     -0.11767445515144
  C   1.17428775782119      0.61549057372884     -0.01586597163243
  C   -2.32918893418441     -0.69310270017533     -0.32068835154721
  N   -2.75909228192297     -1.82120369837549     -0.90320334866080
  H   -4.03286297446043      2.06917245438905      0.80029758155683
  H   0.94798726643465      2.91874422860984     -0.29585871254531
  H   -0.46153648779343      3.96023454716155      0.02235903803734
  H   -0.04142004024859     -3.69772520933495      0.58067966904882
  H   -1.47659141275874     -3.04336674871369      1.09391700319664
  H   5.32080502062670      1.23382835798448     -0.05823753783735
  H   4.42120145834509      2.69115079252344     -0.09965367103217
  H   -2.14405255160956     -2.62372717489815     -0.94646008504719
  H   -3.74195763475813     -1.95917799294061     -1.06908895571036
