27
Coordinates from ORCA-job ./opt_b97-3c_parallel
  N   4.69010900246532     -0.66644899208960      0.20852292636935
  C   3.37548526935263     -0.36467434447485      0.07906419519420
  C   2.29998167257856     -1.29461309505566      0.05335593268531
  C   1.15376830950173     -0.51804819733108     -0.00934448828823
  C   1.64603387913741      0.86853919421605     -0.04053038774963
  N   2.98610849133718      0.92917921613827      0.01841811545208
  N   0.84475025121389      1.90581207467273     -0.18682068424949
  C   -0.47477392295026      1.68868695273145     -0.20787684045190
  N   -1.22840166318484      2.88184350352011     -0.37535456772593
  C   -1.10176640713562      0.43467695143871     -0.06050477980148
  C   -2.49711751937479      0.33429876620793      0.26357067718930
  N   -3.14279042266483      1.42344673546624      0.71246297716413
  C   -3.29714596773588     -0.82921136272341      0.17011056547470
  C   -2.96250759482263     -2.12313414448619     -0.13987655918278
  N   -1.78487425452487     -2.72576183261927     -0.31542320178819
  C   -0.62748145906925     -2.09606057032686     -0.20836513411680
  C   -0.24025661111274     -0.75319436212608     -0.07242937090971
  H   5.00028393112400     -1.58663023538752     -0.04485552383620
  H   5.33283329270211      0.08353193023293      0.02056464635746
  H   2.39354694437313     -2.36674222115615      0.11639011261501
  H   -1.78443886395679      2.86478459621698     -1.22095107989807
  H   -0.57007806563472      3.64708233919271     -0.43543263120044
  H   -4.12468316840395      1.37772080210457      0.91166988749299
  H   -2.67144104792253      2.32449962700271      0.68913581734368
  H   -4.35433797271987     -0.66874198169241      0.35310218452419
  H   -3.80646108085767     -2.80344795826463     -0.22508064972667
  H   0.21508262398533     -2.77697166470768     -0.27131980533688
