29
Coordinates from ORCA-job ./opt_b97-3c_parallel
  N   4.90683854652827     -1.56335865728924      0.19101136050211
  C   4.04088192577542     -0.79729972148919      0.07459700362765
  C   2.96265869480916      0.11220094816250     -0.02424108393546
  C   3.24662970034611      1.38338279594030     -0.53175289430956
  N   2.57844088244612      2.49693513371767     -0.33885328541622
  C   1.33544772331099      2.63530245017798      0.08203269625371
  C   0.27232812925170      1.72835242961982      0.05186096229656
  C   -1.06719100988315      2.27501462176273      0.02658941281440
  N   -1.26799292355108      3.63462578720574     -0.01959401993143
  N   -2.15612412115323      1.53392578911098      0.07009270407631
  C   -2.01484514378716      0.21151298145590      0.02148339655294
  C   -3.03697164664029     -0.75612369129175     -0.00245981322907
  C   -4.41450887732264     -0.50338852007452      0.04663325340213
  N   -5.55796275054767     -0.30081537215612      0.08986837672451
  C   -2.42309451762032     -2.01977211482920     -0.13610442916250
  C   -1.03321047342103     -1.88488162387171     -0.14787846823170
  C   -0.14663607014489     -2.92853940968966     -0.43019603011005
  N   0.62020274853485     -3.78098935528964     -0.63698621037329
  C   -0.73161604656224     -0.47435589719381     -0.03245155496546
  C   0.41921386155459      0.29023205675002      0.07869268493803
  C   1.69326973747701     -0.33229203258264      0.43645418689573
  N   1.64649969932691     -1.43390539492654      1.16945542435808
  H   4.19294734836075      1.49954611305402     -1.04872153252673
  H   1.10644501988218      3.64221319762382      0.41343782547345
  H   -2.24210948926843      3.86742917307351     -0.13269463552596
  H   -0.66335318346643      4.18210737285743     -0.60580214640742
  H   -2.94873490153171     -2.95316904508398     -0.25031679630685
  H   2.46794054406162     -1.99936714828615      1.31788659534049
  H   0.76448230503453     -1.84016799085825      1.42964954107562
