30
Coordinates from ORCA-job ./opt_b97-3c_parallel
  N   -0.38747617696786     -3.40949034599499      1.31186835635111
  C   0.18483009240665     -2.49663976597229      0.86302163908742
  C   0.88855574886930     -1.41457317365964      0.30904098050046
  C   2.27022781450293     -1.67300601444316      0.16372997939323
  C   3.29157899325896     -0.84122171124602     -0.16598878478758
  C   3.19295168093205      0.56804690727251     -0.33230253694774
  N   4.32749443919139      1.20420872119425     -0.77042371641271
  N   2.17710980834711      1.36355081189857     -0.11004713930240
  C   0.86734140268359      1.10614624277099      0.10861139809007
  C   0.10807602398666      2.23542442601904      0.37771231366887
  C   -1.29251181161646      2.24267865235625      0.39406668320476
  N   -1.95957153003561      3.40150534205173      0.69125959642034
  C   -1.95700812939408      1.05930701479333      0.08124010736774
  C   -3.31212708372411      0.80399638245424     -0.19299889275282
  C   -3.45215799908630     -0.51852749198852     -0.58685621338740
  C   -2.19271042162804     -1.14929068537932     -0.54511708318512
  N   -1.97713374593013     -2.40379287528345     -1.02015979496388
  C   -1.21225959468038     -0.16268691025443     -0.11323797769278
  C   0.17485722754508     -0.20512597297156      0.05295482531834
  H   2.54749521769836     -2.70417544066490      0.34599119882684
  H   4.27183917781447     -1.28594219628556     -0.28376463917538
  H   5.21390685997158      0.74633268595977     -0.65829883423123
  H   4.32915774568649      2.20268051924708     -0.65331939808213
  H   0.65183928516584      3.16316736728569      0.49125922904940
  H   -1.44921896598394      4.25985522284501      0.57889074918502
  H   -2.92129274419899      3.46580722347607      0.40954019302416
  H   -4.12578398870569      1.51019655262537     -0.11363357626612
  H   -4.36981613303088     -1.00282797094139     -0.88347601068009
  H   -1.32391858762112     -2.99896045211687     -0.53057172856296
  H   -2.81359669265700     -2.89726665254748     -1.28641744655693
