28
Coordinates from ORCA-job ./opt_b97-3c_parallel
  N   -5.25967870049655     -0.77849762357272      0.27655159342289
  C   -4.10629466496139     -0.83147170737616      0.13929174087373
  C   -2.69946653584222     -0.84234555635992     -0.01084871923842
  C   -2.13641069517068     -2.01535411730803     -0.51939063414978
  N   -0.89249943271972     -2.43177965677022     -0.44245007343908
  C   0.16024556503913     -1.73448831265589     -0.06261214533229
  C   0.38876678929463     -0.34638121438162     -0.01679549310221
  C   -0.64698002411219      0.67618993340386     -0.04576552324455
  C   -0.27051007470445      2.02447775567385     -0.22152637736187
  N   -1.23925909974963      3.04802320122361     -0.33052886508351
  C   1.07393979793998      2.40700993933906     -0.24469543643352
  C   2.06964283286622      1.48027497121099     -0.07343816008031
  N   3.41371749351934      1.70272726039926     -0.05738015092065
  C   3.95720569840108      0.49317434135004      0.05816396160185
  C   2.99858640850791     -0.56077584745123      0.10796405423686
  C   3.31115814866344     -1.91803153462964      0.22051898634931
  N   3.58528009875506     -3.04588861780130      0.31509439361350
  C   1.74004466824101      0.07599633186047      0.03920087026430
  C   -2.01253050899148      0.35728783407833      0.33339359199870
  N   -2.71022165689567      1.27638805442535      1.00785590603342
  H   -2.82920672217822     -2.72796089252704     -0.95493061627749
  H   1.02054743432653     -2.35618132345238      0.14818819497716
  H   -1.92740417709771      2.87322542678435     -1.04943609486394
  H   -0.81644643225467      3.94804191508727     -0.49526337838106
  H   1.33899121362424      3.44643617430752     -0.39454237127849
  H   5.02762340467588      0.35844299623269      0.10898009045655
  H   -2.35579962743998      2.22454663239691      1.05482895361152
  H   -3.68593101523595      1.12377251551462      1.20531582884711
