29
Coordinates from ORCA-job ./opt_b97-3c_parallel
  N   5.61648955148211     -2.00094457288591     -0.81104151601187
  C   4.60011851375259     -1.47321886900040     -0.60341029818016
  C   3.42973504316199     -0.75385018477003     -0.33660430162982
  C   2.10994987346422     -1.20363032780207     -0.34763785315936
  C   1.26220029747164     -0.11664295914235     -0.04787686420805
  C   2.08311339989931      1.03836144359614      0.18117862508409
  C   1.48073888796516      2.18908316742939      0.66298462116821
  N   0.16815120697201      2.34339520066583      0.72283517018111
  C   -0.64537307871586      1.33150803964134      0.34072998548353
  N   -1.88351085817809      1.69808749977832      0.07348335173606
  C   -2.94457749474676      0.95558635251342     -0.23813751443301
  N   -3.94588300965925      1.67224698430563     -0.79038993761023
  C   -3.16215845516357     -0.42509101654604      0.00072298567112
  C   -4.47019177972513     -0.91468051840298     -0.12078525745090
  N   -5.55810599639467     -1.32266471980088     -0.22403922265111
  C   -2.12732047752635     -1.34971491345548      0.33092156297473
  N   -2.49961834212236     -2.59170937843639      0.71276884099457
  N   -0.81622337929969     -1.18061328086810      0.26311607037981
  C   -0.11886763689030     -0.05213659966583      0.16422905938867
  C   3.43200745648597      0.64695698231828      0.00188193550006
  N   4.54260699777626      1.38507299183407      0.13985128808979
  H   1.79489840493491     -2.21134074185803     -0.55848904156014
  H   2.06747951974522      3.03395335470572      1.01494859227666
  H   -3.85585081723526      2.67184636176153     -0.77293821168305
  H   -4.84498502108131      1.26684913985357     -0.97925181819494
  H   -1.77931319331246     -3.28747755168048      0.77564691145982
  H   -3.45827935401742     -2.88837829823388      0.68155574176775
  H   5.43874996057742      0.98981020148282     -0.08608418486240
  H   4.49359955117963      2.38163731886273      0.23652625467907
