26
Coordinates from ORCA-job ./opt_b97-3c_parallel
  N   0.19266891457422     -3.96164979558732      0.00197744072925
  C   0.04996389718605     -2.80629626754375      0.00104237481424
  C   -0.23574824908171     -1.42787398894278      0.00034672882149
  C   -1.61299944030372     -1.06732975032941      0.00044307238108
  N   -2.55436091370501     -2.02475192235875      0.00030588868953
  C   -1.94375623681475      0.29317508704720     -0.00010637772049
  C   -3.17328705652101      0.95132823639658     -0.00024903057036
  C   -2.91858916331329      2.33954875615517     -0.00059581214832
  C   -1.54861197670155      2.55555692119160     -0.00063346152004
  C   -0.89856035548340      1.29352583734985     -0.00035281570599
  C   0.45983530430812      0.95445274751913     -0.00025834624967
  C   1.42488504686426      1.97660270379578     -0.00033723072982
  C   2.80668922477251      1.96764799162237     -0.00043534765241
  N   3.70006817397109      0.97837872562560     -0.00058304927475
  C   3.35605684318415     -0.30052147797654     -0.00053411977748
  C   2.12411665872428     -0.94512372474244     -0.00026550183771
  C   0.80721038884587     -0.47192647063036     -0.00007874518761
  H   -3.52671083144931     -1.78569993382202      0.00314276409228
  H   -2.30814005311516     -2.99896676983124      0.00285710758563
  H   -4.15505483975926      0.50209250635783     -0.00034929631141
  H   -3.67447935208244      3.10945069460285     -0.00084426603448
  H   -1.07484645981507      3.52359305287536     -0.00094347347013
  H   1.01044066556046      2.97600064748045     -0.00027414930267
  H   3.26400466888033      2.95293991057760     -0.00042861203298
  H   4.20878621249908     -0.97375106027782     -0.00070551872244
  H   2.21721577077528     -2.02434757245496     -0.00021365166471
