24
Coordinates from ORCA-job ./opt_b97-3c_parallel
  N   2.03753749840842      2.45658428275934     -0.15574157963255
  C   2.09406844653647      1.09052290078391     -0.08388114979976
  N   3.30088440058815      0.47682703582506     -0.05406956867470
  C   3.07300948802371     -0.84790925224071      0.02781949164012
  C   1.70089306028037     -1.13073018646473      0.03709436392563
  C   0.93303635053565     -2.27445077713362      0.08372696591730
  N   -0.39533994499454     -2.25463396728253      0.04461291503541
  C   -1.05808058189600     -1.07107591102657      0.00444620049804
  C   -2.45352654041618     -1.23188470602365     -0.10847863574017
  C   -3.49640130608753     -0.32441806786592     -0.14672179694041
  C   -3.46866939563844      1.05185698580420     -0.01146254178442
  C   -2.33538226873978      1.83577610605825      0.19007840807808
  C   -1.00972118952449      1.47210159806517      0.21504499059609
  C   -0.36462672063161      0.21842278131329      0.04815323554353
  C   1.02893775720122      0.15030380574097     -0.01346604275145
  H   2.92750542217785      2.86667276400760     -0.39487189500816
  H   1.27206722520773      2.84708867617695     -0.68090428664788
  H   3.89400424403492     -1.54788845000748      0.05902616364949
  H   1.39006185670915     -3.25730961464018      0.14529345112926
  H   -2.73012121333440     -2.27490594419280     -0.18716347497300
  H   -4.47775606933758     -0.76590344048031     -0.27658241378041
  H   -4.41963251533554      1.56791591154648     -0.03886584221578
  H   -2.52020553297035      2.89289058732835      0.34478959106367
  H   -0.33414937959716      2.28810969354893      0.43096054917207
