28
Coordinates from ORCA-job ./opt_b97-3c_parallel
  N   3.32432637667441      2.20989832617687     -0.56539050695082
  C   2.87546373111604      1.14548964130643     -0.39818563847874
  C   2.31223087093481     -0.10838394292709     -0.15954985400186
  C   3.01506593290018     -1.32441795380040     -0.26323547449058
  C   2.13871090802528     -2.40602293272613     -0.14779893461256
  C   0.84842696557952     -1.89625524006775     -0.00960626962818
  N   -0.29123926233274     -2.58279746752687      0.18408661874166
  C   -1.41746021239286     -1.90732937108850      0.20323279546214
  N   -2.58232392833122     -2.64976809583504      0.31884769942669
  C   -1.50631811753081     -0.47019286964632      0.02983970763631
  C   -2.73680807710644      0.03458218457931     -0.39417530715834
  C   -3.13888031824926      1.32307236851503     -0.69164062805171
  C   -2.44749128840902      2.49528232117980     -0.42839530386856
  C   -1.21529280483854      2.64802730188228      0.16758202612363
  C   -0.26394983177765      1.68028977656802      0.51355560956670
  N   0.76590958771648      2.08811717850330      1.27224406624107
  C   -0.26660671122528      0.27631847438522      0.13149959544797
  C   0.91488547633376     -0.43915737012735     -0.00160564045562
  H   4.07768111480339     -1.38677718659144     -0.43806706409693
  H   2.39763971841882     -3.45124270371134     -0.17602164927058
  H   -2.37278500240774     -3.62246618522071      0.48056994206280
  H   -3.26278213062700     -2.29760616087883      0.97214863336672
  H   -3.47471001177159     -0.72816605546321     -0.60597863859144
  H   -4.12102235867333      1.42790770773758     -1.13340366698466
  H   -2.96188176398835      3.41759613338848     -0.67118998592316
  H   -0.93128368739876      3.66687808229579      0.40598228452158
  H   1.53654046629047      1.46994407006175      1.44971509795286
  H   0.95884510556747      3.06746510563119      1.38383241771359
