27
Coordinates from ORCA-job ./opt_b97-3c_parallel
  N   -3.87330423398292      3.32376647662624     -0.00103171671704
  C   -3.09830401427223      2.45855778756607     -0.00062868267942
  C   -2.21290417547075      1.34926896349387     -0.00036394696085
  C   -0.86012960310804      1.66239063966921     -0.00022114914958
  C   0.30347544075599      0.89151323296390      0.00001708054795
  C   1.51716058897124      1.61117204689007      0.00008730968758
  C   2.76654536155073      1.00141316933299      0.00030661760802
  C   3.94038803870160      1.79536321371464      0.00027283497392
  N   4.88260144966140      2.47130557857434     -0.00023820801095
  C   2.82445188837684     -0.40075034366747      0.00051786113065
  N   3.86401613694981     -1.23966425474070      0.00077686347560
  C   3.25571691561875     -2.45660858013595      0.00085601941634
  N   1.91031060425716     -2.47861615037122      0.00067120712019
  C   1.59181986132561     -1.16642071526566      0.00044852314650
  C   0.32954730896014     -0.55781234564646      0.00021703983580
  C   -0.78367736854433     -1.40744508786790      0.00017322511532
  C   -2.14407944607786     -1.17711776275088     -0.00003663708247
  C   -2.97214323787698     -2.33118887111285     -0.00000351192440
  N   -3.70983214431449     -3.22795606638193      0.00008701340061
  C   -2.84623122644968      0.07177140682311     -0.00028661199465
  N   -4.18175925235703      0.03304834833239     -0.00046116283279
  H   -0.67809848456305      2.72963902923334     -0.00032842700939
  H   1.47425271845136      2.69027957139579     -0.00006308368820
  H   3.83386469359502     -3.36847207460856      0.00106417596163
  H   -0.50339730962359     -2.45418059803145      0.00034086290917
  H   -4.72683100648513      0.87914570536317     -0.00065905147148
  H   -4.67577216524902     -0.84393181309767     -0.00041811350875
