31
Coordinates from ORCA-job ./opt_b97-3c_parallel
  N   4.05819578397504      2.00867714905467     -0.56066854737679
  C   2.92762507027252      1.32449699287975     -0.18903876931854
  C   3.10404172466897      0.02453722751684      0.29495977266169
  C   2.14591785579044     -0.96531722807589      0.45134648976875
  N   2.56481023489657     -2.10914811100379      1.05905746885679
  C   0.75542710849927     -0.88770392381998      0.04982584012330
  C   0.02610851632771     -2.07710121819092     -0.22767915037274
  N   0.69149668372737     -3.31772188837561     -0.41877457521258
  N   -1.29171165391044     -2.16836099292252     -0.33107485072430
  C   -2.00449204851606     -1.05301875608791     -0.15218488998954
  C   -3.37985761177264     -0.83463622498635     -0.16299283742034
  C   -3.52617779808582      0.55385761143258      0.00156308520293
  N   -4.69714952403708      1.25355774396275      0.11448662799158
  N   -2.34234740801243      1.21030205247884      0.11565116700836
  C   -1.38283049592502      0.24721451190477      0.03300483053915
  C   0.00709987888034      0.35081170051314      0.08126417634822
  C   0.59891204303751      1.68468352359626      0.10793943051232
  N   -0.21945025751760      2.69861890467587      0.40214875815804
  N   1.82792674461889      2.05841267593374     -0.23920539783288
  H   3.88639666419710      2.89435832310216     -1.00437986029130
  H   4.83144991118368      1.48157812093813     -0.92390271225950
  H   4.11984393659027     -0.24221360432633      0.56386074623776
  H   1.99735297821999     -2.93975051076447      0.93407590428974
  H   3.55355295769110     -2.25226225956847      1.16116178295987
  H   -0.01405409322358     -4.00129837696459     -0.65703805741963
  H   1.37565902067917     -3.27493155790719     -1.16283446369664
  H   -4.15891304067289     -1.56931750745754     -0.27795410849218
  H   -4.61412341528173      2.23835035262512     -0.07543458540451
  H   -5.50711496556309      0.82873539331749     -0.30171282684916
  H   0.14808495593824      3.62203326367555      0.24932012274710
  H   -1.23523129357585      2.51869424454380      0.41792298105517
