30
Coordinates from ORCA-job ./opt_b97-3c_parallel
  N   2.62371133465285     -3.38639456064620     -0.10934525104548
  C   2.20625126749961     -2.29911610287725     -0.07294028159660
  C   1.78307737779890     -0.95355881236214     -0.02621976998703
  C   2.86853548262321     -0.02060952752313      0.11616154981835
  N   4.09981842774757     -0.54198637183641      0.36654653662006
  N   2.87862813705207      1.29687175464718      0.04155476412642
  C   1.81857946211624      2.09324472201238     -0.12469380764053
  N   2.18659451933148      3.40288076352400     -0.33542680380026
  C   0.45738046603371      1.81268608809859     -0.12440082675970
  C   -0.24515877969331      0.60684327517759     -0.02790982546622
  C   0.37942195044520     -0.72534972727352     -0.06285000127431
  C   -0.45929511963512     -1.85199138651793     -0.13500339319700
  C   -1.83979037652914     -1.77226598535567     -0.11613479716529
  C   -2.45433498073809     -0.54246475529494     -0.01559888347255
  C   -3.82152310930604     -0.14963250170174      0.05736384651711
  N   -4.90246009542424     -0.97405561464388     -0.01659399081534
  C   -3.85997842097131      1.26254331142120      0.15741537069301
  C   -2.55849085417334      1.73757613392052      0.14877687676991
  C   -1.65224245276696      0.64457034343623      0.04061406312571
  H   4.87138355173772      0.09186432904744      0.26711812363958
  H   4.27869502779075     -1.52499281461602      0.26851585370595
  H   1.50912010863156      4.12134828868037     -0.15455590809794
  H   3.12940663639674      3.62160169832810     -0.06443740874350
  H   -0.16939463736263      2.68775744081891     -0.23479859321628
  H   -0.00625636114087     -2.82942863247571     -0.19103874436329
  H   -2.41145408066183     -2.69182606303702     -0.17511652521156
  H   -5.78423516699067     -0.61219674237772      0.30140006604627
  H   -4.76504589489277     -1.94836823823451      0.18694495591151
  H   -4.75539070557703      1.85971170659046      0.23559750046630
  H   -2.29512372289425      2.77964418567081      0.24316763671268
