24
Coordinates from ORCA-job ./opt_b97-3c_parallel
  N   -4.21848906073949     -0.72315975716505      0.07293508336977
  C   -2.97596776289204     -0.16789905542836      0.02527233142155
  C   -1.88662887927470     -1.07016610880424      0.01340564083765
  C   -0.51565757130625     -0.88029632017534      0.00546276652254
  C   0.28921356950316     -2.05452103695563     -0.00173833497746
  C   1.65825069275554     -2.01734173178392     -0.00571748043758
  C   2.31660721452410     -0.78564267426716     -0.00389943478266
  C   3.65070675465694     -0.39225021295845     -0.00280610777168
  N   3.77031998050888      0.97150528501342      0.00125004644358
  C   2.53109642277669      1.46590162766066      0.00530083967054
  C   1.54863627067024      0.43376640576431      0.00243646947208
  C   0.15142195121812      0.43533738310376      0.00491169078326
  C   -0.55253062586746      1.65121409743375     -0.00026488582707
  C   -1.90471186024002      1.92634073193418     -0.00420107389257
  N   -2.99196633293527      1.16283453920173      0.00691949212494
  H   -4.36386806675200     -1.70470027003279     -0.06326461775188
  H   -5.00111928024816     -0.10391955393053     -0.03297466372135
  H   -2.18514790880069     -2.11331764931949      0.01974523071674
  H   -0.21805596288843     -3.00969020974790     -0.00103646329133
  H   2.22149113790081     -2.94258237393674     -0.00982430622598
  H   4.52922291791560     -1.01987655820533     -0.00853284922611
  H   2.37278674337430      2.53447973554288      0.00914152880298
  H   0.06800403099271      2.53738174442348     -0.00914065814619
  H   -2.14585668765255      2.98562094643279     -0.02083053831373
