32
Coordinates from ORCA-job ./opt_b97-3c_parallel
  N   -4.24820908193754      1.74955763201270      0.57086244176137
  C   -3.07998956523156      1.05450402851656      0.28635742116459
  C   -3.16711789582200     -0.32981202309150      0.24523401859892
  C   -2.18637097375112     -1.26742041033104     -0.05433192528148
  N   -2.67784595788613     -2.55412411589282     -0.22893880913262
  C   -0.76052333846485     -1.10544163060423     -0.05347707731911
  C   -0.01001941134567     -2.30183003876972      0.01719377775703
  C   1.36481685246768     -2.33538161891864      0.04972774862547
  C   2.08980962278075     -1.15656188047904      0.02804840995019
  C   3.45840897489883     -0.90649862756150      0.12244780033399
  C   3.62649216518734      0.48766714619199      0.17080201868249
  N   4.84323792078116      1.14549912433224      0.25294230673916
  C   2.37533804212908      1.12213750618925      0.06241303756790
  C   1.37408899718807      0.12277624859607     -0.02614538645594
  C   -0.03859822846066      0.15503619565803     -0.11727074237931
  C   -0.68179412804015      1.42327576500355     -0.39093136405208
  N   0.10511713072795      2.41525448739985     -0.90942408360543
  C   -1.98073320123990      1.81457982591366     -0.09708743254002
  H   -4.11710159639243      2.68706656135642      0.91031029351642
  H   -4.92525849298519      1.24527901943863      1.11737164550565
  H   -4.16579129947164     -0.73186299377855      0.38210850541892
  H   -2.13648663204571     -3.14559915724801     -0.83376633915155
  H   -3.65867193154611     -2.59847007814424     -0.44302869469584
  H   -0.52264285119857     -3.23789674472574      0.16813792934146
  H   1.87390048689393     -3.28809175608737      0.13679449815969
  H   4.24096258916442     -1.64797721845347      0.17988906480476
  H   5.56964758096983      0.61514508890500      0.70581320157488
  H   4.78679158092989      2.07703584140118      0.63145767504239
  H   2.23908026967526      2.18272441035382      0.19000544010291
  H   0.97685024542773      2.13289849884638     -1.32992907712639
  H   -0.36781479857817      3.17344312217237     -1.36724974072717
  H   -2.17789072642438      2.87442402889791     -0.22159287228122
