34
Coordinates from ORCA-job ./opt_b97-3c_parallel
  N   -5.92371334554675     -1.53883241798097      0.79310922437034
  C   -4.82068332314275     -1.22208964625404      0.59756087989131
  C   -3.52007684483090     -0.76400890315132      0.35834525612816
  C   -2.33445747927879     -1.52028934455400      0.29648119180856
  C   -1.25569891474515     -0.64716734286126      0.10642116504298
  C   -1.79162417094536      0.68521708691510      0.02837169202634
  C   -3.18771149230622      0.61065752637824      0.19868912351023
  N   -4.08011845962184      1.65948088037677      0.18197356507135
  C   -0.96767394931997      1.74732222811774     -0.33296314842658
  N   -1.46447811495628      2.97130097343277     -0.62417088182214
  C   0.44226669885746      1.51915838398410     -0.35960586738707
  C   1.22553484983230      2.60081765313922     -0.80443153585414
  N   1.73710503406415      3.54263557980722     -1.25859985649980
  C   1.01321244400285      0.26189715919721     -0.05306467314807
  C   2.37662468190824      0.19206830744087      0.31463848406528
  C   2.98237926748636      1.36168585729027      0.82364850728290
  N   3.56212790564387      2.23341804476593      1.33284030762235
  C   3.24623370779975     -0.95307262341955      0.30927236039416
  N   4.48941885206207     -0.78951509410615      0.80703983636606
  N   3.03373200734625     -2.16617049606436     -0.18130045936441
  C   1.85792481281020     -2.70854880272871     -0.46680669544121
  N   1.95064104745161     -3.98696915923187     -0.93622880040181
  C   0.55935302628289     -2.20543203599981     -0.27397933163967
  C   0.12836260510335     -0.91112002234707     -0.04903490841361
  H   -2.29432506933787     -2.58778942333088      0.43489279478914
  H   -5.02776110421541      1.39432247485938      0.40737904717594
  H   -3.79568799363195      2.46647124112635      0.71727992471805
  H   -0.83969548748757      3.65596269084029     -1.01987249976860
  H   -2.42237582446733      3.02514249932220     -0.92876852291056
  H   5.13025956828296     -1.55417950131683      0.70345849698500
  H   4.83527623936663      0.10677056304548      1.09933112047542
  H   1.18301158884126     -4.38514682314299     -1.44452753524913
  H   2.87123376879730     -4.30279791571475     -1.18502437124840
  H   -0.22671411670637     -2.93805750323119     -0.39569141154940
