28
Coordinates from ORCA-job ./opt_b97-3c_parallel
  N   -0.15384179141524     -4.15561414423896      0.33939413816746
  C   0.19404148243007     -3.05040459885129      0.25331837687187
  C   0.67966983514786     -1.72549243298507      0.16122257853455
  C   2.05726599793776     -1.50042036453812      0.16491776879440
  C   2.55463214433752     -0.22400721906223      0.02302655693383
  C   3.87730747876467      0.26927742951505     -0.03919486164720
  C   3.80643770246788      1.65328359013650     -0.20123810774006
  C   2.45825591068542      2.04495107692398     -0.23236579281553
  C   1.65372098557375      0.89709677377410     -0.09102226156114
  C   0.25045625306596      0.72848094378849     -0.01250818946159
  C   -0.56481960160965      1.83999729069191      0.12452677422139
  C   -1.96180507806608      1.98222570115074      0.17543652296086
  N   -2.42781796479174      3.25559288049436      0.42018957802545
  C   -2.90758148866892      0.97522372625971      0.03547861010413
  C   -2.65974943804404     -0.38403153982305     -0.17322786367604
  N   -3.72038676894499     -1.18834388013601     -0.48883944884819
  N   -1.51698924806634     -1.06054536942291     -0.09352658171383
  C   -0.26353342651283     -0.66415875277059      0.01846967243480
  H   2.72322088828431     -2.34856575917142      0.25632759228592
  H   4.77495412917111     -0.32631446165177      0.01955140527758
  H   4.64932193980188      2.32010871165133     -0.29751413639966
  H   2.11728245495227      3.05931755149616     -0.37465253287379
  H   -0.02564410502104      2.77376857033729      0.22791006169568
  H   -3.38283225478666      3.45297666995143      0.17958969079850
  H   -1.80201781658043      4.01852077799742      0.23299233285995
  H   -3.94836111232137      1.27836396443614      0.06621648390957
  H   -4.65674349406237     -0.86719069560808     -0.32457336193687
  H   -3.55623583132879     -2.17476933134514     -0.38239189540199
