24
Coordinates from ORCA-job ./opt_b97-3c_parallel
  N   4.17016327804671      0.58716386917480     -0.05598344859807
  C   2.98807604413884     -0.09759309592704     -0.00033062689090
  C   2.84785844907650     -1.50858026208963     -0.00179244444076
  C   1.50024859276704     -1.83863911837394     -0.00412740725225
  C   0.74271017696148     -0.64471619876353     -0.00552265467960
  C   1.68434353528875      0.45739184147891     -0.00873706029108
  C   1.18588353430309      1.73776073443851     -0.02678689000700
  N   -0.11698139681833      2.01850712945159     -0.02611852027238
  C   -1.02607985515956      1.01490752779676     -0.01249661205076
  C   -2.35441947923071      1.46701210954837      0.00333303974819
  C   -3.54641927415403      0.75819989512441      0.02039399763606
  C   -3.73719108927080     -0.60615130416430      0.01817680967245
  C   -2.73089400616510     -1.58790425892539     -0.00528110874213
  N   -1.42795297285636     -1.51220321339672     -0.01656476355224
  C   -0.62662690292218     -0.41011732580813     -0.01054918591347
  H   4.15933275754130      1.54623131704357      0.24443306797381
  H   4.99331844733593      0.09061776977367      0.23802699423645
  H   3.67012941440524     -2.20876901222643     -0.00334983907219
  H   1.08650847063555     -2.83297763558444      0.00042516810729
  H   1.84128609587483      2.60528100493500     -0.04657390723592
  H   -2.42831400508615      2.54607666196809      0.00359088342786
  H   -4.44378144050466      1.36654446545295      0.03551996241747
  H   -4.75551381413942     -0.97352822249607      0.02989042684143
  H   -3.09841220726796     -2.61337975773099     -0.01477032076227
