27
Coordinates from ORCA-job ./opt_b97-3c_parallel
  N   -4.34599216898240      1.61613965555458     -0.50927524115618
  C   -3.21090498573377      1.39900239652475     -0.38933235271305
  C   -1.82328603213668      1.16742222495612     -0.24738975829071
  C   -0.96578930154968      2.28126509589440     -0.30073692119919
  C   0.36804958312741      2.10565432999279     -0.08450081161102
  C   1.40545571660914      3.05984213202458      0.07866051732096
  C   2.56271268902627      2.39802196278974      0.40357142917626
  C   2.31990366665107      0.99340091249454      0.42128095009204
  N   3.24928165994177      0.11236292830609      0.82664955540216
  C   0.92538620504761      0.77748831933605      0.09955163231728
  C   0.10830753743971     -0.34966555418016      0.00199905503896
  C   0.63795023988825     -1.67455940308204     -0.20464022851742
  C   1.88726080188741     -1.77725682692052     -0.84245013339127
  N   2.92807855543147     -1.87534897738670     -1.35917548784545
  C   0.08278805500394     -2.93749108482680      0.09540187100487
  N   -1.09292188606240     -3.31244402695921      0.53738948149794
  C   -2.14071994293628     -2.47511492499551      0.61096908672610
  C   -2.28125598206530     -1.14775654509741      0.29171029570855
  C   -1.33666203187384     -0.13694262040746     -0.00985787093281
  H   -1.38463723237884      3.26557599887067     -0.45557791515069
  H   1.28591104859819      4.12755849097445     -0.01716007724081
  H   3.51889233285643      2.84716476014185      0.62368925386714
  H   4.16904011501129      0.48024021761877      1.00419175880524
  H   3.25191172044916     -0.82981026328235      0.46598614729363
  H   0.77058969339470     -3.76306095416736     -0.07020529108069
  H   -3.05019694475662     -2.96464994594595      0.94419090845649
  H   -3.30023024188827     -0.79156918692824      0.37225220862645
