26
Coordinates from ORCA-job ./opt_b97-3c_parallel
  N   -4.33984555682655     -0.53086575700768     -0.51312848357333
  C   -3.10855555334069     -0.05932077895359     -0.14270090282401
  C   -3.01353702071751      1.31805970198993      0.15356025854145
  C   -1.84375226162529      2.01164593678911      0.35626480407692
  C   -0.52783976192256      1.58269305244199      0.29361337532091
  C   -0.00601984081777      0.29534746770123      0.07202682865933
  C   -0.84427484455825     -0.92104948795844      0.04266913043281
  C   -0.20653761579727     -2.17512881159612      0.14788970947150
  C   1.16539233557985     -2.33058681043189      0.16886503612102
  C   1.97498447154207     -1.21371326753727      0.05810352846579
  C   3.36346827670244     -1.00959633609629     -0.01365894875452
  N   3.67445518603127      0.29140310815320     -0.16472355191912
  C   2.49936361960299      0.96654952047638     -0.17588578375551
  N   2.50963730014586      2.31964876492300     -0.32054486698717
  C   1.37856588047188      0.09184843346754     -0.02617881771978
  N   -2.17604453983993     -0.99630226787688     -0.10505940061271
  H   -5.15663031268899      0.01899446031069     -0.31962363966253
  H   -4.45065629610697     -1.52907983631269     -0.48017251550071
  H   -3.93921353025137      1.87869444289469      0.19785170213234
  H   -1.96697841681763      3.06351161005546      0.59008761547205
  H   0.20227196596347      2.34395159816673      0.52759816022414
  H   -0.85751049272000     -3.03633969880086      0.17416911866055
  H   1.59489077852651     -3.32224563784041      0.24283557986092
  H   4.13987684352066     -1.75957183356490      0.02534828459893
  H   1.70309026426952      2.74215765595631     -0.75035726911327
  H   3.39210147447387      2.68354077325063     -0.64480771521621
