23
Coordinates from ORCA-job ./opt_b97-3c_parallel
  N   5.15785830595443     -0.64148866873622      0.09783220833201
  C   4.06856228879430     -0.23781848446755      0.07974694391578
  C   2.76526883377243      0.27451244231381      0.05905947171252
  C   2.39513656109324      1.64274183477883      0.02629054707066
  N   1.07054957899178      1.83191403052350     -0.00492741882440
  C   0.51655208941566      0.58025565947638      0.01671086511817
  C   1.55145460413179     -0.43332579389177      0.04685875473229
  N   1.30718112863576     -1.75109245267761      0.02052547897970
  C   0.03872423474954     -2.09384164573783     -0.03369928093284
  C   -1.07255500999275     -1.20020981859783     -0.03621227131313
  C   -2.33566805518271     -1.81634036866740     -0.12899974993539
  N   -3.56055352766819     -1.35300783195595     -0.01305290624030
  C   -3.86804147011661     -0.06583594097561      0.18823540179834
  N   -3.19625860693863      1.05897333933911      0.11807463023753
  C   -1.87203076168546      1.21886487840711     -0.04412034534825
  N   -1.48384497164790      2.47287181257526     -0.20016899646361
  C   -0.81929451849645      0.20896428817157     -0.00018014921196
  H   3.07619171682335      2.47981459519031      0.01872639003218
  H   -0.16893940732669     -3.15732637896162     -0.07063868814401
  H   -2.29729017717680     -2.88968433477714     -0.29978021939378
  H   -4.91777653748957      0.08191938538281      0.42405619122614
  H   -2.19354388519216      3.18637942501230     -0.16356527042989
  H   -0.47456442894845      2.69100163437553     -0.20864955131768
