30
Coordinates from ORCA-job ./opt_b97-3c_parallel
  N   2.89282240430084      2.61589946216147      0.72195673323481
  C   2.32728570104352      1.39952128455714      0.37259569638632
  C   3.19387773637660      0.35943803486157      0.06904622505152
  C   2.82497590916956     -0.92221841660821     -0.35998396957539
  N   3.80519020523398     -1.69687199675758     -0.93651158086863
  N   1.66339830415758     -1.55082624580996     -0.26660429696414
  C   0.44858526688160     -1.09760498131034      0.02881422618930
  N   -0.44504672855839     -2.05524381895426      0.28502038974525
  C   -1.75486380019014     -1.77402072214037      0.36265177973624
  N   -2.54221293755606     -2.81612277998021      0.74885778637836
  C   -2.26843049577870     -0.50867233313548      0.07119696924583
  C   -3.56398209878516      0.02339674306015     -0.03459394471356
  C   -3.45737275343395      1.38710664701934     -0.32308072528469
  C   -2.09591111654167      1.73450948247769     -0.38235914934281
  N   -1.59622845732507      3.00353687615732     -0.62695086935828
  C   -1.32972710577438      0.56047259718120     -0.13034508419113
  C   0.04811756010716      0.33784818924811      0.01367525588811
  C   0.92929358143389      1.38465811062002      0.26255797881572
  H   2.29677151110967      3.24104014480417      1.23686488097967
  H   3.82211462420726      2.57349966377619      1.10325716815924
  H   4.25483889110273      0.58310167380849      0.08992751154306
  H   3.61651633444372     -2.68437729206042     -0.92596117603336
  H   4.76517966991017     -1.43451579578436     -0.80388390509647
  H   -3.52641464845399     -2.76688548942083      0.55891215750461
  H   -2.11817697383765     -3.72440491253639      0.66815640815575
  H   -4.49463531803218     -0.51316934268381      0.07687686862493
  H   -4.28048493537147      2.06612760389521     -0.48953534576820
  H   -2.25765453952999      3.61323411872090     -1.08241138093669
  H   -0.71261860861524      3.00965459368718     -1.11571722641555
  H   0.45668150721439      2.33510720924344      0.47706227181900
