26
Coordinates from ORCA-job ./opt_b97-3c_parallel
  N   5.59257909363845     -1.20859101760142      0.00339022521267
  C   4.54499503789470     -0.71096547691975      0.00314537534448
  C   3.25992353399847     -0.09441075905035      0.00272079819444
  C   3.24368789963369      1.30382306324303      0.00378060876196
  C   2.13587112461807      2.12739509717223      0.00363512097648
  C   0.79078202003523      1.79953367452169      0.00245380887947
  C   0.12192225090305      0.56779320665146      0.00104340527604
  C   0.78749943076847     -0.74516807618643      0.00046331095927
  C   2.16934303997412     -0.96240635403411      0.00127904222916
  C   0.00638505713145     -1.91537658211921     -0.00102999319190
  C   -1.38159425294701     -1.89834392846144     -0.00201268556308
  C   -2.10202142659001     -3.11956477614279     -0.00350014814854
  N   -2.65200433074875     -4.13993357274674     -0.00463933174154
  C   -2.04589890966922     -0.66757328393981     -0.00149344508569
  N   -3.37441025103006     -0.45706739054859     -0.00225836843827
  C   -3.51907352073516      0.87854702200754     -0.00124184443808
  C   -2.28828548040274      1.57095496469245      0.00022115948981
  C   -2.13624462282772      2.96030819551916      0.00156384685962
  N   -1.99593589700795      4.11601121520703      0.00263267783231
  C   -1.28533952075588      0.56261415553271      0.00007647073703
  H   4.21035285631543      1.78917181175237      0.00482569468175
  H   2.34570791333265      3.18900277679906      0.00459068638375
  H   0.13859821614106      2.66054438560954      0.00266477862074
  H   2.44756370544611     -2.00845588696169      0.00066274919614
  H   0.50808214892915     -2.87105799579477     -0.00143128195252
  H   -4.49676473554558      1.33533350669881     -0.00154265757551
