25
Coordinates from ORCA-job ./opt_b97-3c_parallel
  N   -2.93748225988728     -2.84984713848233      0.27783807532661
  C   -2.69340106503115     -1.71476987333620      0.17974368903027
  C   -2.41334279425201     -0.34973469195035      0.06381534794397
  C   -3.41008541768529      0.65746527712757     -0.04635246869487
  C   -2.81342062575470      1.89958399713117     -0.17693563420217
  C   -1.41777989522470      1.71168973559961     -0.15256799626622
  C   -0.36276388170895      2.59761223814861     -0.26406925033092
  C   0.94369341992756      2.13970553200333     -0.18718160107942
  C   1.24403312732669      0.77958890040361     -0.05923608247684
  C   2.61890195773600      0.39075824309236      0.13491474749178
  N   3.46515221191461      1.27766774576357      0.68910674797085
  N   3.20514966988944     -0.71767217808768     -0.31822972653548
  C   2.60173474209395     -1.85333787973831     -0.56396909365121
  N   1.44193230283150     -2.31304913270537     -0.10000499586072
  C   0.41796487461153     -1.57638556914881      0.24995498105803
  C   0.17679005747080     -0.18980377481581      0.02589097185247
  C   -1.14731567331878      0.28736659598458      0.00727861448396
  H   -4.46930255550412      0.45488115742310     -0.03204414166062
  H   -3.32148339613854      2.84425801221320     -0.28501406079379
  H   -0.55090307181994      3.65493885698899     -0.40222740323601
  H   1.75176816797916      2.85091256951565     -0.28271670319816
  H   4.43003998145206      1.01272739318993      0.78234473502019
  H   3.12432960131312      2.05702729697068      1.21935456811526
  H   3.18241232743138     -2.57282992447693     -1.13186186132764
  H   -0.39289246195252     -2.13505055061427      0.70049842932111
