25
Coordinates from ORCA-job ./opt_b97-3c_parallel
  N   0.61530027399607      3.84035619051200      0.44837118801681
  C   0.29572885877638      2.72644084559719      0.34965448426635
  C   -0.24075652459745      1.42875285456693      0.23680268239116
  C   -1.64967302577088      1.30465616379529      0.10154096517587
  N   -2.42568819099082      2.39281187739132      0.17057696123650
  C   -2.17874688459700      0.01884335054145     -0.12419876100082
  C   -3.46687782973151     -0.48410815319165     -0.27953765142509
  N   -3.46668299107892     -1.84752982125802     -0.39075320885155
  C   -2.19490028202565     -2.23659702287026     -0.28628826123965
  C   -1.31904062883521     -1.12892881083196     -0.12909876000956
  C   0.05364661755810     -1.05575548817121      0.09052406395820
  N   0.73226964214491     -2.17513873698791      0.34375225172471
  C   2.03723080236077     -2.29451832601218      0.54547245784780
  N   3.07451394974471     -1.51945407374658      0.30173224629296
  C   2.94074213470386     -0.24184453024096     -0.10444445899432
  N   4.06133876710909      0.29987043274190     -0.61059522331765
  N   1.91684667013814      0.61303159822726     -0.01267245389531
  C   0.63541931401153      0.32465349497354      0.12620057188409
  H   -3.41422442306100      2.33146500004114      0.01874326704760
  H   -2.02273013780273      3.30643240651481      0.29278624573919
  H   -4.40356521210185      0.05406908714766     -0.30931843828991
  H   -1.91462567409450     -3.27692394084191     -0.33043490210067
  H   2.31435868158746     -3.26478000051633      0.94905900655668
  H   4.08617676846892      1.28488575500537     -0.80103091278738
  H   4.91011687718756     -0.23474261838691     -0.59755629382600
