24
Coordinates from ORCA-job ./opt_b97-3c_parallel
  N   -4.43486032981282      0.74146468562557      0.00387144894864
  C   -3.12792955435490      0.38231662868130      0.00051049439763
  C   -2.83141104078982     -0.98995073346451      0.00050173083293
  C   -1.60914804197413     -1.61819434587705      0.00053848355957
  C   -0.28671945918575     -1.14916815108493     -0.00005107631506
  C   0.73175794087318     -2.13235018875585     -0.00017495253268
  C   2.07595224959752     -1.82658428652399     -0.00067395244279
  C   2.45786596658245     -0.48647325591259     -0.00096601826437
  N   3.67828675581469      0.08759265172249     -0.00149949758721
  C   3.37741794362934      1.40910140683709     -0.00161302415612
  N   2.07658574122922      1.75335795027966     -0.00120066854087
  C   1.45332057492964      0.54753513499303     -0.00078716872485
  C   0.08180144881256      0.25434788186193     -0.00017909245951
  C   -0.81182229959586      1.34330214281939     -0.00003185171866
  C   -2.17570592082238      1.42327076189873      0.00022658748333
  H   -4.70854869820736      1.70520738146337     -0.01208991966167
  H   -5.16452006134576      0.05494480683674     -0.01168260182972
  H   -3.69117410138374     -1.65075942072216      0.00117661888576
  H   -1.68307226689684     -2.70027658922270      0.00048218009852
  H   0.42798992011423     -3.17086360462822     -0.00001716578712
  H   2.82229341848123     -2.61022742018051     -0.00080174265835
  H   4.15573464676837      2.15898287766639     -0.00201960325101
  H   -0.29473278127657      2.29590401967280     -0.00044099364901
  H   -2.58542703398648      2.42750268561400      0.00066682507261
