26
Coordinates from ORCA-job ./opt_b97-3c_parallel
  N   -4.42661576063577     -0.48311965684135     -0.15316917884713
  C   -3.10214050957456     -0.22806096396789      0.00471671385172
  C   -2.74708595579267      1.10382927900635      0.33960984604528
  C   -1.49520832648967      1.64086641527558      0.31494137982011
  C   -0.23990708396359      1.06298682796922      0.04529072274112
  C   0.87614189364559      1.96238616534218     -0.09149575367031
  N   0.65133985908627      3.33165710610357     -0.18087266304417
  N   2.15033998854212      1.59871461995025     -0.09983868424549
  C   2.39596917253204      0.29120958739257     -0.02184117800701
  N   3.60108658602138     -0.31011165321242      0.00052985309106
  C   3.27993580983210     -1.61880967713620      0.02077375031116
  N   1.97044896851412     -1.93961677600333      0.01524114234667
  C   1.36027664530067     -0.71715576694531     -0.00752464049052
  C   0.02216730315462     -0.34857763046071      0.00820511315967
  C   -1.00786587124493     -1.38795838677641      0.01136261208189
  N   -0.55974543456170     -2.63749738309847      0.08634632642191
  N   -2.33236828434255     -1.29302105486869     -0.12336630947916
  H   -4.68267567638706     -1.39800900653810     -0.47904897091579
  H   -5.07647006258826      0.26581314686885     -0.30082406911870
  H   -3.56352598729736      1.76786069161137      0.59440492362841
  H   -1.45414254132834      2.69368042853463      0.56402853155112
  H   1.52335291702731      3.81590051161486     -0.33041776431066
  H   -0.04468182256938      3.61508004564571     -0.85055118828443
  H   4.04017931688471     -2.38613019177195      0.04228652049854
  H   -1.23825422029661     -3.37621560821553      0.01952320109721
  H   0.45972837453152     -2.81427166417883      0.09396674186754
