29
Coordinates from ORCA-job ./opt_b97-3c_parallel
  N   -5.07962594130852     -1.28997127289994      0.68586913053022
  C   -4.00960129080112     -0.89217326911937      0.45934980191350
  C   -2.74071391342565     -0.33528394592773      0.18900465259056
  C   -1.71853316680523     -1.21335828517084     -0.12222994557756
  C   -0.35949846163296     -1.01202612088249     -0.35292424204292
  C   0.28100035934394     -2.14543981186992     -0.88851564006440
  N   0.80603237301668     -3.08919327725097     -1.32782452354956
  C   0.44047083768662      0.17414606625280     -0.15337961811332
  C   -0.14970773938925      1.50645756986986     -0.26549213080484
  C   0.71588518412913      2.61018361351125     -0.44713302851510
  C   2.08405442107293      2.51231500599047     -0.35563153653714
  C   2.64368340173872      1.28393610605432     -0.05290378716721
  C   3.94732332002018      0.88570220185132      0.28249072709126
  N   4.01627608690020     -0.40601231242079      0.62761956915748
  C   2.76462105765030     -0.91376720036939      0.49630581127733
  N   2.55160777168308     -2.16996462456522      0.90016731941387
  C   1.81751969702006      0.11252381166303      0.05678232929038
  C   -1.51748910683424      1.82323092347165     -0.17957643079585
  C   -2.65815654564731      1.09325828625988      0.12174237528210
  N   -3.80477603744251      1.78338379657062      0.35756609139311
  H   -2.03286470422010     -2.24517131327817     -0.21341542591217
  H   0.26591346885641      3.57774502252568     -0.62147653008313
  H   2.70356816505140      3.39234891191141     -0.47032098208335
  H   4.83200813913229      1.50603624653293      0.29566236197170
  H   1.82582014210342     -2.73161691353795      0.48040813786555
  H   3.38898725208900     -2.66465660348790      1.16552653509981
  H   -1.70490185361948      2.88823570798890     -0.26013940203872
  H   -4.68592880962381      1.30241701222600      0.40565432595567
  H   -3.83913787054426      2.76800147160005      0.17201674085242
