30
Coordinates from ORCA-job ./opt_b97-3c_parallel
  N   2.79238104444660      3.67277011213144     -0.68993561082697
  C   1.89501342942677      2.95521219765907     -0.52124995825104
  C   0.75794025001792      2.13435126233103     -0.33266503621999
  C   -0.50698287588639      2.70954868524146     -0.32933906981160
  C   -1.59609961169276      1.91092906474317     -0.06447805903007
  C   -2.94907653891359      2.20955120574493      0.20135342759976
  N   -3.65065534518992      1.13005316291527      0.54255379559619
  C   -2.79124765035337      0.06997575165217      0.47721242881669
  N   -3.24400871373538     -1.12284212172328      0.87626220801799
  C   -1.45575427101148      0.49235314780798      0.09587577076620
  C   -0.21161359892844     -0.13837034004120     -0.03398551982284
  C   -0.09839227626128     -1.54173459357639     -0.28444047426987
  C   -1.19518747498556     -2.16410824641967     -0.88691680826545
  N   -2.09615501679391     -2.73145661432924     -1.36977039902775
  C   1.00883370501133     -2.41672619219997     -0.03015885597967
  N   0.77662891026979     -3.75454941245048     -0.15890439739158
  C   2.27601797423288     -2.04213432593233      0.38126780545250
  C   2.78854964260876     -0.74414792414118      0.46992449821949
  N   4.06158652375504     -0.59887930439769      0.93251903248940
  N   2.23120712506876      0.42042953852019      0.15252210952547
  C   0.96614192158499      0.74304561269123     -0.06031263663708
  H   -0.61145769703337      3.77541403363645     -0.47710220264577
  H   -3.41600490761935      3.18347201774529      0.16427533095130
  H   -4.22884492624097     -1.14005105446886      1.09047280895676
  H   -2.86672870999062     -1.97269055069897      0.48596866059858
  H   1.56680376967772     -4.36499070401520     -0.25511254938946
  H   -0.06596185105753     -4.06845127389768     -0.60852210534011
  H   2.95621379751963     -2.84929232208210      0.62599329445524
  H   4.47746227625569      0.30637921097679      0.79875452805780
  H   4.67762605171805     -1.38793456922172      0.99381148840595
