27
Coordinates from ORCA-job ./opt_b97-3c_parallel
  N   -5.62933386223065      2.20845786600126      0.00166571354858
  C   -4.57583837158581      1.71966986176692      0.00141153058096
  C   -3.28951438924980      1.12601591526846      0.00095797503171
  C   -3.22557303010118     -0.27103946896831      0.13534512974130
  N   -2.19746088272017     -1.08339720810609      0.11451529702273
  C   -0.89208745879472     -0.79569166779001      0.01508490611317
  C   -0.06318229775524     -1.92649728056643     -0.03485354303214
  C   -0.64319903093167     -3.21391658427178     -0.03307548591077
  N   -0.95701458155357     -4.33273937396994     -0.04203177704359
  C   1.36284877121732     -1.85637308828433     -0.03209112687811
  N   2.08004782843152     -2.98130800835088     -0.06379661180448
  C   1.95638576900740     -0.58241761109534      0.01364242879545
  C   3.28246030002260     -0.17695642394254      0.02368677076613
  C   3.29896419676014      1.25100953379236      0.04298448443744
  C   4.46525201865125      2.03776169325496      0.05958866987083
  N   5.43556140801966      2.67557504855503      0.07366881582231
  C   1.98826043356674      1.72272306965895      0.03638933360975
  C   1.12675979114449      0.60051519787093      0.02446338134355
  C   -0.26586565721366      0.55896441437658     -0.02306834599559
  N   -0.89910447567131      1.73815832933086     -0.11971096292136
  C   -2.18442458776097      1.98720785693877     -0.13580523529397
  H   -4.17904528227291     -0.77429925622425      0.26240083532473
  H   1.62940351902532     -3.88146346450409     -0.08288516058373
  H   3.08219614162782     -2.95854152181278     -0.04447408814174
  H   4.16852679820716     -0.79146408349117      0.01339426838697
  H   1.67857545269327      2.75243197276299      0.04231174788086
  H   -2.42766985493316      3.03815553979998     -0.26004156447112
