30
Coordinates from ORCA-job ./opt_b97-3c_parallel
  N   4.90504384822353      1.75707783424972      0.14702137196160
  C   3.89983718648992      1.17062378758633      0.10744943182620
  C   2.74695622065519      0.38648067369824      0.06424168549561
  C   2.75396249975165     -1.04318816652466      0.05168382400499
  N   3.85863858887292     -1.79914395134199      0.07169793991523
  C   1.42199079880783     -1.51989183594542     -0.00922915180877
  C   1.10890708077858     -2.87541696716024     -0.01560242640172
  N   0.88620162053837     -4.02148192628457     -0.01911462936487
  C   0.55693187519069     -0.38381793330623     -0.02985144225465
  C   1.40803124662183      0.79804176312683      0.00676851239670
  N   0.95047590818825      2.04573306673520     -0.06832662972199
  C   -0.36131632978815      2.22893182910755     -0.10385691373822
  N   -0.76261887526901      3.54177660299831     -0.20438933824193
  C   -1.32402249873806      1.16254340148171     -0.00510922701256
  C   -2.64489238467137      1.52241193368637      0.24500795691126
  N   -3.80702860629408      0.87847683655201      0.27045533803020
  C   -3.98624187155022     -0.42217460022079      0.05651687964603
  N   -5.27870591632036     -0.78723245724933     -0.02914589810229
  C   -3.01775467307226     -1.46256836030775     -0.05425395789139
  C   -1.66445334845286     -1.34416973245005     -0.08088552796255
  C   -0.81969461278971     -0.20740796014586     -0.04685619249353
  H   4.75888695457055     -1.37561249009039      0.20664863189410
  H   3.79142816154579     -2.79853999769866      0.14029097369091
  H   0.01816046532231      4.16214444463216     -0.34817077116493
  H   -1.54448809591809      3.74478352896480     -0.80147697255411
  H   -2.77977943892935      2.57216256234457      0.48339163810743
  H   -5.55951966989463     -1.73848167875038     -0.17406061933648
  H   -5.98175936763058     -0.07997475341566      0.09258878787324
  H   -3.41041166404954     -2.47047123195962     -0.11539173292157
  H   -1.14188782828905     -2.28807203201239     -0.14685306308187
