32
Coordinates from ORCA-job ./opt_b97-3c_parallel
  N   -2.96342432101691     -3.98131375015244     -0.45146588691071
  C   -2.54221446994893     -2.90569430672752     -0.31716899915894
  C   -2.08971609101613     -1.57422150496774     -0.15434396519137
  C   -0.72427067981402     -1.41028988043790      0.01304272903658
  C   0.09301337787077     -0.28641155965851      0.06037946167971
  C   -0.33461818116560      1.09451389573145     -0.04880729784905
  C   0.64825068344985      2.06258094542395     -0.30667202346646
  N   1.96586872675123      1.86134530935911     -0.37099205641406
  C   2.39499922298186      0.63489975409804     -0.12655839920518
  C   3.71659071252012      0.16192364629465     -0.07905408137019
  C   4.91277569768201      0.85735758989878     -0.25159107354434
  N   5.95640360646429      1.35718726215820     -0.38371038617700
  C   3.63974431383804     -1.24103547969533      0.16905376313501
  N   4.71006713128955     -2.03794744653148      0.31783977637772
  C   2.28206009108710     -1.63771528733114      0.26738415792415
  C   1.49408045165217     -0.51044261116130      0.09949811945814
  C   -1.67247481653446      1.54987180645165      0.18422335409860
  N   -1.81883863285201      2.85814423810035      0.48217430038832
  C   -2.88752046169172      0.80813625525325      0.10422425650883
  C   -4.06850325085071      1.55396628046479      0.29811028198936
  N   -5.04721694032442      2.16594153594835      0.45378693436270
  C   -3.10161031690165     -0.56871881131274     -0.15348440480356
  N   -4.36669592398313     -0.98110568068206     -0.34486539045072
  H   -0.18663437163081     -2.34781940452457      0.03495380445314
  H   0.34894364994316      3.07479679039654     -0.54588636862930
  H   4.60714261857967     -3.03490340960786      0.34236697464147
  H   5.62992076525865     -1.67510237713230      0.13725262816042
  H   1.96218631271495     -2.64686377636861      0.47441193941718
  H   -2.72807942485021      3.25921505268492      0.63166621938501
  H   -1.03106673665901      3.39690733431990      0.78469999394768
  H   -4.57916195021038     -1.96023746225643     -0.42766376928755
  H   -5.13771133963532     -0.33797437973668     -0.30719224560257
