29
Coordinates from ORCA-job ./opt_b97-3c_parallel
  N   5.48409345136485     -1.33624076394918      0.11072531324067
  C   4.33627281428597     -1.13770939571694      0.08753979966698
  C   2.96428930664364     -0.82676213077264      0.05073427972878
  C   2.04526650822130     -1.88432983786348      0.11093822529879
  C   0.67813412556448     -1.88148747763125      0.08148649852275
  C   -0.24666260074431     -0.81375793618874      0.00502809893568
  C   0.17164374593280      0.59676974071246      0.01407266480999
  N   1.39756531151840      1.09350176854146     -0.04561763987451
  C   2.60735630336703      0.54678947427459     -0.07666278299173
  N   3.59220864403152      1.45475647017645     -0.23651722689175
  C   -0.84748134830746      1.60088653281355      0.07444405111078
  C   -0.45883358158584      2.96037832154126      0.11435451735073
  N   -0.20571892071531      4.09352480644666      0.14969408785836
  C   -2.20537431312092      1.28807182107094      0.06750559108677
  C   -2.60208936027062     -0.02550607104439      0.00232842236832
  C   -3.88672849669933     -0.63451636794128     -0.03641776775795
  N   -5.08147303442505     -0.00457658083412      0.02392706047819
  C   -3.69605954041005     -2.04268470923961     -0.09355749127998
  C   -2.34188929998524     -2.30669192137808     -0.09179309729266
  C   -1.61838558160085     -1.07748632857165     -0.03297564087815
  H   2.50084496331724     -2.86303607874459      0.19253553892117
  H   0.23152743728073     -2.86405001971574      0.14147121683505
  H   3.33091415196015      2.42435713380323     -0.23764683695725
  H   4.56309485230618      1.19984767859722     -0.21894255116291
  H   -2.91828513543446      2.10217697224188      0.10805816465071
  H   -5.12822678902173      0.98453139270681     -0.14140699583143
  H   -5.91377736119390     -0.51649633799588     -0.20598249053394
  H   -4.48718410280470     -2.77519483276061     -0.13385331988178
  H   -1.91510290577451     -3.29532693757833     -0.14654898542960
