28
Coordinates from ORCA-job ./opt_b97-3c_parallel
  N   2.77375557188081      1.53677233533136      0.99901385568704
  C   2.19029763403097      0.50280864869941      0.34669784300589
  C   3.01618507407723     -0.57154695532751      0.02030073692932
  C   2.64882471640826     -1.81288471859487     -0.46128491764345
  N   1.48762259331563     -2.42495491421741     -0.46209110365447
  C   0.32924808164073     -1.92080438530415     -0.00603906783472
  N   -0.56990104663353     -2.85153891385063      0.30874323427725
  C   -0.10474383391877     -0.52628953484923      0.05357444240482
  C   0.77669512918960      0.61330863667153      0.02126053926947
  C   0.21230273446493      1.90723415970304     -0.18267676433078
  N   1.05907804895209      3.04871326342736     -0.33678944022764
  C   -1.15405430949972      2.10995511281126     -0.22660243579672
  C   -2.02909989370452      1.05271159485191     -0.04553795753614
  C   -3.42579956695332      0.91463838108638     -0.00228813880183
  C   -3.65476988244271     -0.44688805083982      0.16909281015527
  N   -2.51182303023949     -1.17344827647553      0.23399029584545
  C   -1.49173875184563     -0.27865667826852      0.09829592365850
  H   3.77463181987097      1.53088248564342      1.08797782708188
  H   2.32124583221655      2.44436722923834      0.94005544585054
  H   4.08249409914764     -0.40807326715889      0.13138636242334
  H   3.46022424326544     -2.42398932920570     -0.85076446525646
  H   -1.56202140394996     -2.55425224253419      0.40791153042317
  H   -0.31489874666794     -3.79754967811267      0.07815245813525
  H   1.66692862699481      2.95793064020389     -1.14111035875447
  H   0.50408721762847      3.88192327705051     -0.46232541492550
  H   -1.53243875068597      3.10998093253675     -0.41160650708849
  H   -4.16434030919248      1.69620496313306     -0.07517917497400
  H   -4.61061817625013     -0.94150815594905      0.26399231477749
