26
Coordinates from ORCA-job ./opt_b97-3c_parallel
  N   3.36901627164989     -1.95611802243118      0.54632781019114
  C   2.69131250462262     -0.84828666280261      0.15131958005701
  N   3.50958532190762      0.18272395944458     -0.13313701730516
  C   3.06499051376165      1.40738565147523     -0.38451477386225
  N   1.91216578216149      2.02717669836324     -0.25326910838260
  C   0.71870017348628      1.45706880802084      0.01975767783770
  N   -0.27283866790598      2.32808144430907      0.23732267872369
  C   -1.55040235166534      1.92653971943232      0.27225148869079
  C   -1.91302348820988      0.62971127094887      0.02029141741646
  C   -3.16724496679759     -0.07993268043131     -0.01607763551125
  N   -4.38206639203226      0.49996615613315      0.11178701698079
  C   -2.90841215948395     -1.44930204732050     -0.13529666370690
  C   -1.51218560836289     -1.62777714669073     -0.17429418308038
  N   -0.81047676797576     -2.75915392508510     -0.26498047434487
  C   -0.87656580355910     -0.33875048680712     -0.10950493220606
  C   0.46212093261915     -0.00062670258090     -0.01756736423054
  N   1.37303377406459     -1.00475710398299      0.06774295149249
  H   4.36403784741282     -1.95748868317892      0.41938183056822
  H   2.88319390879890     -2.82989911401845      0.61483309766488
  H   3.85566945060894      2.06512838473524     -0.74121634282118
  H   -2.27691522827724      2.70060780289065      0.50312406421725
  H   -4.46391280807948      1.48625259467227     -0.05474565952905
  H   -5.20193717010676     -0.03802522142996     -0.10297165741917
  H   -3.64867624592831     -2.23245865761960     -0.18531316142267
  H   -1.24696638246397     -3.65767220412746     -0.16656714565076
  H   0.19433716215434     -2.64770108891905     -0.14805533396767
