33
Coordinates from ORCA-job ./opt_b97-3c_parallel
  N   -4.54935677617914     -2.42168484072627      0.64718298552176
  C   -3.65355927611850     -1.69413900435005      0.48157095385099
  C   -2.58803620173647     -0.81858535752691      0.28289696821238
  C   -2.69918415794388      0.54642524160941     -0.08124433402214
  N   -3.87824049943872      1.20706113929625     -0.27066123056630
  C   -1.40320086257592      1.08373927891616     -0.17924032687565
  C   -0.97827621081397      2.40366905184238     -0.32234403698194
  N   -1.88291153153800      3.43943364829069     -0.49136744270281
  C   0.38725905255526      2.65746710003475     -0.25304571508701
  C   1.34964718217136      1.67464098143841     -0.01211020987479
  N   2.57416403920519      2.17273731444879      0.27506542668285
  C   3.65439509179097      1.50741246431412      0.62155009308329
  C   3.99502450405598      0.16502379262823      0.60838023972570
  C   3.23570080920742     -0.89110770473074      0.10595926612212
  N   3.85107256123207     -2.10127361812090      0.00060992075052
  C   1.86746645103036     -0.80520148001784     -0.28224371516944
  C   1.40893853131369     -1.90107695126630     -1.01753879459964
  N   1.07242480374335     -2.86242952979561     -1.59294526399021
  C   0.93402766320660      0.26359871665813     -0.03135747570571
  C   -0.44091410475368      0.02616730776302      0.02761538453547
  C   -1.21549519541028     -1.16278412592178      0.33882540885939
  N   -0.79367001687956     -2.37082341025835      0.75320661803578
  H   -3.87531651811411      1.91102687484621     -0.99158597877684
  H   -4.70045127623263      0.62435013464748     -0.29934333066126
  H   -2.71837643981738      3.35902285377862      0.06836111346651
  H   -1.47444309097889      4.35510519507619     -0.39367162890882
  H   0.75116239778348      3.67520967584756     -0.27834177047954
  H   4.45251897254012      2.16147510329058      0.97018848635196
  H   4.99742575519703     -0.07251984171026      0.94353233354564
  H   3.40173719465595     -2.84218941293625     -0.50987432801270
  H   4.85425048225318     -2.12242469600111     -0.00036886163679
  H   0.04031618438611     -2.76734529067602      0.35092804757167
  H   -1.51635997439784     -3.05161211168841      0.92831967603622
