29
Coordinates from ORCA-job ./opt_b97-3c_parallel
  N   4.23427963361393      3.35917529395290     -0.00240414958890
  C   3.40030813703426      2.55114958318043     -0.00187229479771
  C   2.43786126383359      1.50706452738181     -0.00120221838712
  C   1.11480543520272      1.91045691937403     -0.00075860730502
  C   -0.11110560270735      1.23164919348478     -0.00019735079894
  C   -1.24797847743925      2.05899003106176      0.00017086511130
  C   -2.54516471589360      1.56040783610969      0.00063475135262
  C   -3.64515728093888      2.45459686946929      0.00102111484680
  N   -4.51494781938292      3.22095044586867      0.00131471350140
  C   -2.73555525178162      0.17594748300184      0.00068623703631
  N   -3.90149715071853     -0.49072426298219      0.00104240001865
  C   -3.56089705218732     -1.79098437479540      0.00084919825112
  C   -2.16384904453647     -2.00624645753980      0.00040991886669
  C   -1.52906615649733     -3.25204804240715      0.00011859146847
  N   -0.98436004695452     -4.28076428586916      0.00012632704322
  C   -1.58326086701339     -0.71380445104042      0.00026706603532
  C   -0.26732195065164     -0.21186189430502     -0.00005409606081
  C   0.79625606386282     -1.12795383339822     -0.00019168220138
  C   2.17305382631767     -0.99674436718878     -0.00057016841838
  C   2.91147896735355     -2.21114787121042     -0.00058016037204
  N   3.59085477886812     -3.15249149401738     -0.00052192118730
  C   2.97496997537266      0.18514743873890     -0.00110280866300
  N   4.30358224868080      0.04569933038262     -0.00152189470397
  H   1.00918184134013      2.98777092188840     -0.00090516700426
  H   -1.11007980853114      3.12982987433094      0.00007461459165
  H   -4.31354931468485     -2.56470746577210      0.00104248121006
  H   0.48393472084282     -2.16226386360571      0.00005558710578
  H   4.91161745831582      0.84759210387268     -0.00193040307338
  H   4.72918194087992     -0.86668891526701     -0.00148737147717
