31
Coordinates from ORCA-job ./opt_b97-3c_parallel
  N   -5.02902765075154     -1.78663053654866      0.18348516086196
  C   -4.00889079285526     -1.22759374473910      0.11669643351753
  C   -2.80909611915598     -0.51900276231302      0.04782648972251
  C   -2.69978065868178      0.89276400052374      0.16209276017375
  N   -3.73395765553846      1.74400118724724      0.32209495163882
  C   -1.33452813812969      1.25932607537369      0.06257509493260
  C   -0.90380595791322      2.55320166061232      0.34420482830156
  N   -0.58770408797327      3.65429503373856      0.57041670010462
  C   -0.56479315126884      0.05195400919272     -0.10511398770906
  C   -1.50820848618282     -1.04417670280794     -0.08566574200195
  C   -1.06612484074692     -2.36241561330514     -0.17800101158714
  C   0.28115846615897     -2.61245512231423     -0.20480040433888
  C   1.24197038144084     -1.57348784266495     -0.18865100893324
  C   2.57635129126453     -2.00099987073814     -0.01937329881588
  N   3.67788282734124     -1.37903456689955      0.31430374964497
  C   3.85311052236290     -0.04734704952842      0.33382494871224
  N   5.03570591724769      0.32653445028115      0.88241916873375
  C   3.06071559916729      0.93718603012969     -0.26535958957703
  C   1.72676649988969      0.85098258039280     -0.63206942957600
  N   1.22760947489029      1.83373099271460     -1.40401893994112
  C   0.79948965206399     -0.20640250619341     -0.25301123859788
  H   -3.53838029859667      2.68893087104938      0.60392369353050
  H   -4.61866531063670      1.36993549543178      0.61783997690748
  H   -1.78122282656961     -3.17395175060371     -0.18471335410829
  H   0.63578483710215     -3.63397750425352     -0.19670537585689
  H   2.70530864634740     -3.07864950329493     -0.08316134761162
  H   5.58634740618549     -0.39592732029500      1.31119353630198
  H   5.18575946635837      1.27258524223569      1.17869509881407
  H   3.55818178609983      1.87382579536829     -0.49100731701969
  H   1.71869014020381      2.70481463032479     -1.49697265387109
  H   0.24038583237645      1.87135340268335     -1.58228003985246
