30
Coordinates from ORCA-job ./opt_b97-3c_parallel
  N   -4.16081769091729     -1.82451020638790     -0.87910200408864
  C   -3.28354530124723     -1.12732907352975     -0.55977590950037
  C   -2.23613617785887     -0.26811601354600     -0.16917256870346
  C   -2.65564302408503      0.99017113241699      0.32542626152097
  N   -3.98114217345404      1.17954787771734      0.55273765311460
  C   -1.81060106803267      2.07537448964154      0.58835594603400
  C   -0.47270435752418      2.18629455878269      0.32546102213595
  C   0.50905377604918      1.25485374846072     -0.04018399770799
  C   1.80686126717450      1.80035182271253     -0.30176987440708
  N   1.93150517758006      3.17765416068352     -0.51290257001512
  C   2.93670180639798      1.00305473657065     -0.26902157808136
  C   2.82338805382338     -0.34075764807068      0.03628386394239
  N   3.82413559093220     -1.23070442918089      0.16656264158494
  C   3.20270598545639     -2.41037969921193      0.40902536399734
  C   1.80968547792456     -2.33203918933141      0.40239615024838
  C   1.50401399623440     -0.96682388869265      0.17207899629918
  C   0.34259411969940     -0.18684937788184      0.02890028822527
  C   -0.92332796033579     -0.82488755834941     -0.22072263415608
  N   -0.86394208032903     -2.12502206175093     -0.56803942688015
  H   -4.65386196002178      0.49039415357387      0.26575458195191
  H   -4.32557437071851      2.11310648641039      0.67537907536223
  H   -2.29388492411624      2.95970497444903      0.98603428200908
  H   -0.07273944938028      3.17817840214148      0.49878178649519
  H   1.33911874140786      3.54443630145496     -1.24086989784994
  H   2.88430332207463      3.46568617524712     -0.66474175946941
  H   3.91669369316553      1.42071618159727     -0.46593237956198
  H   3.78745567149007     -3.30015803952444      0.59884520094564
  H   1.14581692221433     -3.13465615693341      0.67645671473487
  H   0.02772010845621     -2.51296640866518     -0.83205361845117
  H   -1.69033886665985     -2.61803770440384     -0.85731287602920
