23
Coordinates from ORCA-job ./opt_b97-3c_parallel
  N   4.12392934660641     -1.32368849693771      0.02095480026930
  C   2.98747030363328     -0.58562406676227      0.05839104538557
  C   2.91093871490663      0.84112605383538      0.08442148072677
  C   1.56130993034720      1.12702472383848      0.06091439562516
  C   0.79761473647854      2.30271875290435      0.02228734623067
  C   -0.57017652760219      2.22438354685801     -0.05022875174740
  C   -1.26706837997865      0.99080349176744     -0.03620966743062
  C   -2.65302011754902      1.04707342637148     -0.07900398067084
  N   -3.58491639918250      0.11131535945256      0.15418932814761
  C   -3.36374516117907     -1.17739419698529      0.23436155056290
  N   -2.32600647073257     -1.94112456268793     -0.15183226807692
  C   -1.09315001076874     -1.52149660573447     -0.28725680657912
  C   -0.50156323497858     -0.25886489083322     -0.02794738706514
  C   0.88496140918686     -0.16972964015528      0.01796670469198
  N   1.78331479422050     -1.18482144317654      0.02121735245876
  H   4.97557410414037     -0.90972942096671      0.35315778598800
  H   4.01642797502254     -2.30726383122410      0.20005564344251
  H   3.73715478667959      1.53380216633844      0.09256598958319
  H   1.28252990783051      3.27079461213744      0.03225241900182
  H   -1.15493821515686      3.13338243828860     -0.08945162348017
  H   -3.07523535248806      2.03556079188558     -0.23648759584286
  H   -4.20211264843356     -1.75477425242073      0.61402991315199
  H   -0.39227665500262     -2.27936920059346     -0.62410163137317
