29
Coordinates from ORCA-job ./opt_b97-3c_parallel
  N   -0.52072821921571     -3.85341075637886      0.60284214935256
  C   -0.83971588117801     -2.75325888712606      0.40397227959785
  C   -1.32043367623738     -1.43923651977588      0.17749104992929
  C   -2.72033208151546     -1.41331507594381      0.10480032383924
  C   -3.61362629140492     -0.39220708329369     -0.08123984575180
  C   -3.32206398721563      0.97671004547855     -0.17792982730563
  N   -4.37781937415442      1.82153003293946     -0.40651344703581
  C   -2.06158770818085      1.55763440142816     -0.07144482626998
  C   -0.76341907219108      1.04509596984007      0.05735112110198
  N   0.14932485992504      2.03370003888911      0.19319252747563
  C   1.45328635412949      1.77558947960272      0.17861952158458
  N   2.28919870878464      2.84534974556090      0.35797980434347
  C   1.93601938741761      0.49165229966341     -0.05050595937284
  C   3.20362062099492     -0.06865727733280     -0.23220095496508
  N   4.41756313810970      0.56669041736539     -0.29507273538284
  N   3.13118680565391     -1.42762968451823     -0.32966383644282
  C   1.84234082813293     -1.75738569123999     -0.22415901258598
  C   1.00625353757132     -0.60876125733707     -0.06470419482267
  C   -0.37144985386092     -0.37969546572065      0.04116830925664
  H   -3.17474974690229     -2.39051270538329      0.20768729814686
  H   -4.65722173527825     -0.67487283854761     -0.14306977537514
  H   -5.30375355544782      1.48409900414168     -0.21466745098855
  H   -4.24648587143348      2.80147764251703     -0.23116782406213
  H   -2.04955244879921      2.64025159152988     -0.10331001199354
  H   1.82140833840095      3.67074675280381      0.69707066045282
  H   3.16873601154790      2.65201136004215      0.80857500597415
  H   5.15710497749461     -0.04516367206172     -0.60471031858481
  H   4.42038606541464      1.45087694730660     -0.77877334978063
  H   1.54903713026478     -2.78911113148936     -0.28675756705350
