28
Coordinates from ORCA-job ./opt_b97-3c_parallel
  N   1.36555803030560      4.41603135022159     -0.48574745088118
  C   1.21539801261943      3.27054807681006     -0.35861933940627
  C   1.06615800717381      1.87345989159160     -0.20653123258733
  C   2.22704062443444      1.09837527322724     -0.21778476798742
  C   2.11900977400743     -0.25151030847806     -0.02343090100835
  C   3.06750243728917     -1.30143378167299      0.13138061147548
  N   4.40370982307997     -1.23716269852218      0.08266076933891
  N   2.45323488200478     -2.48658183195093      0.39975425020308
  C   1.14085467050716     -2.24406104152258      0.39147807241006
  C   0.83084050723442     -0.87631438515449      0.13091623275690
  C   -0.36559670911817     -0.14851018596206      0.02566872021691
  C   -1.61922270655396     -0.82108577266176     -0.13646406900531
  C   -1.58569161160648     -2.17770732786803     -0.51578847537733
  N   -1.69230029441665     -3.28873407353663     -0.85042247411760
  C   -2.95441087564872     -0.33502622939321      0.03870276084764
  N   -3.97317269948623     -1.20106840131472     -0.12575671637029
  N   -3.39188355832033      0.88736444834444      0.37959527035392
  C   -2.64224066012726      1.96952684599594      0.40326144952602
  C   -1.29887378586247      2.19747893150760      0.15271953735142
  C   -0.23454054539987      1.30768885779787     -0.02180129048565
  H   3.18073499567017      1.59298572292990     -0.34735935918238
  H   4.92150906214429     -2.09650670451672      0.13581830137714
  H   4.88061012294358     -0.41598950596730     -0.23788705639533
  H   0.45655258707069     -3.04819729382170      0.59851843131466
  H   -3.84026180304544     -2.16158912110874     -0.38533085116068
  H   -4.90076096741525     -0.83851432029369     -0.00358000124230
  H   -3.20811657129577      2.86435586858872      0.64881611406620
  H   -1.02962926468840      3.24455385923084      0.17251052076911
