25
Coordinates from ORCA-job ./opt_b97-3c_parallel
  N   4.04390810931515      1.01222212630506     -0.03144478625125
  C   2.88959727248093      0.31827699572400      0.00267675024059
  N   2.91157873080155     -1.02624385970167      0.15235357523652
  C   1.62619865803013     -1.42343830361088      0.17985345036175
  N   1.32695336525116     -2.72841588528526      0.32770765951738
  C   0.70937427785639     -0.32197925231096      0.04606924981419
  C   1.56268514469867      0.83073189396453     -0.04510083558582
  C   1.00545305435817      2.08532464743889     -0.15234371547415
  C   -0.37626996684603      2.21317333735663     -0.09800778494582
  C   -1.23910150863487      1.11617966506868      0.04423535758674
  N   -2.53147374762935      1.41856533302176      0.31832428851186
  C   -3.58420929686393      0.63064098884816      0.35963315516400
  N   -3.83856960081328     -0.61409991712147     -0.04354401441793
  C   -2.85944235269697     -1.46084142514775     -0.38388863504299
  C   -1.49037381627555     -1.36676540890811     -0.30816573270911
  C   -0.67629118992342     -0.23156710746530     -0.02552206673399
  H   4.04237881676060      1.95797549947286     -0.36523764174055
  H   4.88966899128968      0.48701390970316     -0.16840278019736
  H   0.40738505238617     -2.97522402369606      0.65093218113803
  H   2.08048186524954     -3.32196768466896      0.63292045734649
  H   1.61749327035781      2.97578145941748     -0.23619348094293
  H   -0.83747051943618      3.18949372030010     -0.10132048322057
  H   -4.46218328168369      1.12726589095641      0.76839161899661
  H   -3.23076310273895     -2.41474984563666     -0.75287398979107
  H   -0.96668681819390     -2.24641141282465     -0.65952573956075
