32
Coordinates from ORCA-job ./opt_b97-3c_parallel
  N   -4.51506579170717     -2.01814346421956     -0.44978917219633
  C   -3.68878439279474     -1.20938809537652     -0.31569428599820
  C   -2.69973961959461     -0.22189201483820     -0.14713022954422
  C   -3.11818178652236      1.01834085114077      0.40195694056822
  N   -4.23167661660961      1.06792147519572      1.14872472250410
  N   -2.57852890467807      2.20533818325353      0.11431921674945
  C   -1.34939767807131      2.45372685507844     -0.24918345083270
  C   -0.18116451303426      1.66540607971799     -0.18776100157243
  C   1.06450819600217      2.37466354649746     -0.14592817050005
  N   1.07767690936360      3.76992802521620     -0.15837972894799
  C   2.25758700347899      1.67904530073099     -0.12281307185949
  C   2.25933627367414      0.29728284373121     -0.04433174901250
  C   3.33284423472605     -0.61128405049923      0.10930947316537
  C   4.68571027017980     -0.25455347029409      0.16186621057170
  N   5.79907093001230      0.08144399359690      0.19967132798846
  C   2.78676497809425     -1.89818931428393      0.25021368501158
  C   1.39119591027752     -1.83784661164495      0.15553587360443
  C   0.54816730088343     -2.92035767343887      0.42438638247011
  N   -0.17334212503560     -3.81233173840701      0.62876120097045
  C   1.02348507912225     -0.45300725286061     -0.04550599897477
  C   -0.18690070761988      0.22569848750267     -0.19933995878625
  C   -1.38668605449245     -0.51721026457679     -0.57241194667287
  N   -1.20860296028035     -1.59449599088751     -1.33486501940976
  H   -4.64803778706202      1.96594990543124      1.31960060043452
  H   -4.77293652688586      0.24293356887957      1.33746530398768
  H   -1.20675892056068      3.47488730698665     -0.58553051221491
  H   2.00562511004404      4.15112102285015     -0.06897168413496
  H   0.46225423951313      4.21453626270938      0.50280330420023
  H   3.19855387777674      2.21507747634434     -0.09636482387683
  H   3.34968619168439     -2.79696630420667      0.44050949336162
  H   -1.93955529194106     -2.27787979550571     -1.45036679554929
  H   -0.27762716694321     -1.89601214622334     -1.56197209270467
