24
Coordinates from ORCA-job ./opt_b97-3c_parallel
  N   -4.18692848932493     -2.18698708670118     -0.00096365692398
  C   -3.14322429408714     -1.68245596581781     -0.00065801156395
  C   -1.84330020011400     -1.11645572355309     -0.00035804262568
  C   -0.72784015371884     -1.94597154625285     -0.00036299675825
  C   0.58564037630599     -1.45328933554209     -0.00012838716479
  C   1.58773039547849     -2.44900748117256     -0.00014275411632
  N   2.90753773046078     -2.44035336505892     -0.00039693910790
  C   3.67816800459146     -1.35789563602267     -0.00027699760172
  C   3.34411449430301     -0.00856960188674      0.00043824164919
  C   2.09332095458328      0.57504063859521      0.00065044203772
  C   0.81651869908782     -0.00613643038004      0.00024703646735
  C   -0.31964179571742      0.81981783620193      0.00029300398537
  C   -0.53686046792389      2.22416953471425      0.00058265709648
  C   0.40730066432450      3.25462583586331      0.00092345844428
  N   1.20622510723320      4.10139269352247      0.00104631157119
  C   -1.93963736558982      2.38727743931658      0.00039438019879
  N   -2.60909283305590      1.22243171684676      0.00003110529741
  C   -1.65903876529626      0.26991866901001     -0.00004187022255
  H   -0.88052150412446     -3.01465330699219     -0.00058541458120
  H   1.18526185459804     -3.45881859244270     -0.00005125271350
  H   4.74001618760663     -1.58416726066385     -0.00073314148079
  H   4.18352165991742      0.67560267453752      0.00070624721075
  H   2.10400495041060      1.65563708113082      0.00109487539395
  H   -2.46185390744854      3.33175632624783      0.00051851370813
