30
Coordinates from ORCA-job ./opt_b97-3c_parallel
  N   5.26005006542661      0.40888907166750      0.66219926177542
  C   4.13653307099037      0.57917251084825      0.41020171867916
  C   2.76258617821122      0.73655418947174      0.11382240739075
  C   2.40155425008474      1.99404251291371     -0.38434710907423
  N   1.22269946644758      2.54611249647301     -0.57394770196995
  C   0.05872884546497      1.94560558943944     -0.33077018112355
  C   -0.32520686830623      0.62506679021452     -0.10196066981443
  C   0.56698760972391     -0.54286090031059     -0.10272728700053
  C   -0.00877777689463     -1.81161374284398     -0.29504147268301
  N   0.79975928616660     -2.96565437430180     -0.45280374488901
  C   -1.39681733051930     -2.00373888133917     -0.30556006943655
  C   -2.26817940121340     -0.96634252156036     -0.08516089856975
  C   -3.66195540616421     -0.89834050461714      0.00563929731607
  C   -3.99497755301418      0.45108526038037      0.18771167203553
  N   -5.25790854695588      0.96173411128125      0.29687155190940
  C   -2.80956939723445      1.24423274239420      0.19140744893945
  C   -1.72491024342382      0.39752332997761      0.03313442681123
  C   1.93996292947185     -0.41667149145233      0.30192755085096
  N   2.52465890467538     -1.46170361168108      0.91460851194448
  H   3.23891780745191      2.65068726836474     -0.60278343453855
  H   -0.77076722864658      2.64025305217851     -0.39056951265423
  H   1.48826775050066     -2.86311294856761     -1.18525072765245
  H   0.24368982166873     -3.78493073104607     -0.64178292742943
  H   -1.77904570550543     -3.00424400339368     -0.47853091794021
  H   -4.35205414873804     -1.72494612663007     -0.05463506255838
  H   -5.34662729567262      1.87948483779698      0.69638888928851
  H   -5.98417365841421      0.32815478381864      0.58162916072060
  H   -2.79846499140452      2.31382841995581      0.33017046537023
  H   2.05906693246538     -2.36018636710322      0.89146926205756
  H   3.51137938895798     -1.44002690002892      1.11008109264451
