30
Coordinates from ORCA-job ./opt_b97-3c_parallel
  N   4.58700619306314      3.08537808949764      0.00129873025271
  C   3.68616223767345      2.34831959306453      0.00100567874368
  C   2.63256909889858      1.40958074924421      0.00074644530902
  C   1.34413474067583      1.94477232212173      0.00119133134498
  N   0.14488483632492      1.41764102680610      0.00117306818111
  C   -0.20452432741497      0.10159551694910      0.00051788106710
  C   0.65861093330090     -1.08213633961913     -0.00023571520713
  C   0.03328276918865     -2.34200242561842     -0.00102016060058
  C   -1.33966742767612     -2.53361326793606     -0.00100026924212
  C   -2.17115700597971     -1.43285676290625     -0.00017361076449
  C   -3.57704535302755     -1.28277155911502      0.00006953120704
  C   -3.88881612356589      0.07792764914188      0.00094314568850
  C   -5.14799091208531      0.68771803272759      0.00141738070881
  N   -6.16169286172110      1.25882714740342      0.00184722233789
  C   -2.65628292539186      0.81527427644466      0.00124984764180
  N   -2.51056330713351      2.12725173334551      0.00201543394829
  C   -1.57707210315069     -0.13447313623374      0.00057081129412
  C   2.09293778205276     -1.05992979408226     -0.00010843792235
  C   2.73885364419069     -2.31585341687649     -0.00045264047195
  N   3.34495823711864     -3.30977024657996     -0.00066138598811
  C   2.99962479401781      0.02845245019574      0.00023586804551
  N   4.31766550751355     -0.23753154027010      0.00009293341967
  H   1.33133101088129      3.03143713047279      0.00166293779311
  H   0.65980819574512     -3.22075830799715     -0.00164685543670
  H   -1.73733151953150     -3.53961070442569     -0.00163468678279
  H   -4.30078941594665     -2.08163701741642     -0.00036323456660
  H   -1.54683453913198      2.45766262716012      0.00206513021034
  H   -3.30275912446577      2.74829905577952      0.00243706322954
  H   4.66041329640862     -1.18228150984282     -0.00024665966842
  H   4.99042799876857      0.50895175506489      0.00041099672805
