34
Coordinates from ORCA-job ./opt_b97-3c_parallel
  N   -5.63222073561507      0.53595417279605      0.14372978843772
  C   -4.48380098110034      0.32473700503351      0.12449721272060
  C   -3.10632594199500      0.06598888331937      0.07879241995211
  C   -2.70358609727284     -1.29471005380213      0.17885176381453
  N   -3.70626558655596     -2.20565980993318      0.41642905544605
  C   -1.42005867853887     -1.81528085240829      0.08413573898027
  C   -0.14322403751722     -1.23985589055983     -0.01830024165029
  C   0.94290173192192     -2.12949570850119     -0.07660898243147
  C   2.27850398173456     -1.73656245039370     -0.10564822429253
  N   3.30000760722060     -2.67012468494752     -0.17417207599671
  C   2.54904453474924     -0.37128466955458     -0.07927186098155
  C   3.73109030209018      0.39388145694766     -0.05158987565080
  N   5.02301786242387     -0.06015424694675     -0.16363204195423
  N   3.47869131586470      1.70725329846641      0.15439711526568
  C   2.13848006441181      1.82505191895421      0.22223739077801
  N   1.57938831638155      3.05033932219878      0.44393002808593
  C   1.47284618250750      0.56932352903760      0.03905721471437
  C   0.12064668677154      0.20045269347629     -0.03451873049115
  C   -0.86182815896945      1.19092853550190     -0.19414082219162
  C   -2.25087977146701      1.17537196369547     -0.15283149816289
  N   -2.86768166558500      2.39753356474083     -0.29987984585800
  H   -4.65457587089758     -1.93001249691347      0.22495243865321
  H   -3.50584418196388     -3.16767712737162      0.21258702682678
  H   -1.39536398319829     -2.89810852281106      0.14709203023948
  H   0.72207766841189     -3.19031699407883     -0.06956881069144
  H   4.12809261042493     -2.41291615960967      0.34096081921069
  H   3.01611027687312     -3.61146230205318      0.04445117316184
  H   5.68657487899654      0.69150573238939     -0.27268287426676
  H   5.15770534434053     -0.78789270586001     -0.84840838880469
  H   0.70033052424129      3.05016270938358      0.93683529361549
  H   2.23887991903815      3.72717004464584      0.79554744513429
  H   -0.46221460477094      2.16669860866358     -0.43402256776747
  H   -2.32899035131817      3.12534624172470     -0.73360869282344
  H   -3.84327879363738      2.40697284796944     -0.54533795452248
