28
Coordinates from ORCA-job ./opt_b97-3c_parallel
  N   -4.50480874473633      2.90050632293296     -0.00279112158897
  C   -3.61009655288006      2.15937324497421     -0.00248218027160
  C   -2.57148857912401      1.19326064834965     -0.00214420903573
  C   -1.27357892113739      1.69830061682541     -0.00083266840296
  C   -0.01635329137515      1.10563793045580     -0.00010449464629
  C   1.08687104888825      1.99948740384549      0.00129862314785
  N   2.36069024463921      1.65383534417431      0.00220700561287
  C   2.63110075587442      0.35064968251529      0.00175225049878
  C   3.88257892215931     -0.28327121754720      0.00249921950327
  C   5.13915111933412      0.33445842574299      0.00389297012994
  N   6.19211304311423      0.82696122145573      0.00492669973524
  C   3.63643016223271     -1.68451035586937      0.00154864235373
  C   2.27002491066555     -1.93680851909701      0.00022650699632
  C   1.59794462108707     -0.70095866379391      0.00030608531318
  C   0.25148873419827     -0.31869416377554     -0.00063936965759
  C   -0.73742092880123     -1.31747559612113     -0.00204902267147
  C   -2.11655472221106     -1.28629330860979     -0.00315253399634
  C   -2.75631097755547     -2.55473972115682     -0.00441643947513
  N   -3.33230357353410     -3.56316347079932     -0.00550375213783
  C   -3.00479061050916     -0.15869054986468     -0.00321520352008
  N   -4.32126399549486     -0.40655469365057     -0.00437261705816
  H   -1.24424367594181      2.78128183403671     -0.00024526271813
  H   0.88059472253196      3.06425211882521      0.00168276848864
  H   4.41241477026660     -2.43327155343158      0.00183371414418
  H   1.83017940775062     -2.92106463757448     -0.00066069428118
  H   -0.33848270933241     -2.32257443164252     -0.00231303610700
  H   -4.98940285082907      0.34565706713667     -0.00449456745151
  H   -4.67505953588021     -1.34800943603652     -0.00519777270401
