35
Coordinates from ORCA-job ./opt_b97-3c_parallel
  N   5.15687610770035      1.18819367388775     -0.88867285133344
  C   4.07071629839009      0.87759183668319     -0.60202770946610
  C   2.76530470257762      0.49475336914693     -0.24517591204444
  C   2.46489537350311     -0.87460724819594     -0.39840870218419
  N   3.36051798520197     -1.65338786929946     -1.03770579210220
  C   1.35473157564590     -1.52907617229636      0.20657014114219
  C   1.50261636198441     -2.91233887219722      0.42667252613761
  N   1.62857563383024     -4.05524936103463      0.60961203017006
  C   0.15927968295166     -0.94054080720717      0.64795643283647
  N   -0.64366819449508     -1.66322820639251      1.43697706206852
  C   -0.32482675345510      0.38290984784365      0.27902323620768
  C   0.51963255044747      1.54294264734812      0.31950691758487
  C   -0.09147388348495      2.81986097998385      0.26394520448027
  C   -1.44503630821825      2.99270263763109      0.11826469825221
  C   -2.28026073315432      1.88563532999541     -0.00705862606867
  C   -3.65103436140710      1.77825719957943     -0.24008325687732
  C   -3.96115367262563      0.41688632901205     -0.36634091498792
  N   -5.19156158178799     -0.11951552541704     -0.59461317024027
  C   -2.77673967930661     -0.35910761926227     -0.18040410082656
  C   -2.75035769812760     -1.72677435688291     -0.43336575638085
  N   -2.78315453351544     -2.87603057652767     -0.63918015188936
  C   -1.69699738677841      0.55244378517911      0.05387002193649
  C   1.94853907378391      1.51302410894909      0.33133508015695
  N   2.60339904872970      2.60752594348191      0.76875233439430
  H   3.26322535480483     -2.65337381300690     -1.01596169437004
  H   4.26261065349961     -1.28989687616102     -1.29169787244628
  H   -1.56379893102436     -1.31270590483322      1.63874441872983
  H   -0.52016497305586     -2.65893348234684      1.52696360193069
  H   0.52565649521027      3.70351188394199      0.20845193668879
  H   -1.85187828939024      3.99248886761892      0.03879652520781
  H   -4.34918903866640      2.59585248952477     -0.32572117988569
  H   -5.22078811970372     -1.07909828018631     -0.89788290288361
  H   -5.87510385291326      0.47036585025035     -1.03473400125866
  H   3.60161738879096      2.68519522974972      0.69026553304285
  H   2.11649561165790      3.34238162383979      1.24171063207790
