33
Coordinates from ORCA-job ./opt_b97-3c_parallel
  N   4.92425319696142     -0.53351102011353      0.08677476743187
  C   3.83384929578480     -0.12346664142911      0.05198129534014
  C   2.58275307245033      0.49273910183519      0.02548676327492
  C   2.41613098769849      1.91541124102120      0.12009240889666
  N   3.46220065347359      2.78675247157745      0.17998433355330
  C   1.05834496530556      2.22581961419738      0.08235904795269
  C   0.32908162739247      1.01268425349298     -0.01369017273538
  C   1.29954397895269     -0.06740277187954     -0.03152953411471
  C   0.84657586829702     -1.38775083990474     -0.04731921101370
  C   1.75583355231310     -2.47024823210866      0.01225757165708
  N   2.43161181590579     -3.41435305727705      0.05946777985344
  C   -0.52704178047996     -1.68327295653666     -0.06748490515974
  N   -0.91750540590624     -3.05243533160286     -0.03606408986211
  C   -1.49719584974436     -0.65072325672443     -0.09439480752443
  C   -2.90556597353546     -0.99493084947950     -0.18600264169966
  N   -3.25741370666774     -2.14362567428953     -0.79108761471209
  C   -3.95306827813416     -0.25915413845605      0.40226568761237
  C   -3.95024586742522      1.06518343934767      0.76432042805768
  N   -3.12269843195620      2.02296479115463      0.38496703787755
  C   -1.96138037004877      1.84203190855965     -0.22012688459510
  N   -1.57026388793459      2.86222449981078     -0.99673331448068
  C   -1.04151964947611      0.72238611033365     -0.06495882353429
  H   4.35367393953162      2.40089687261200      0.44463242316539
  H   3.28189291389485      3.69894080268071      0.55972746812355
  H   0.65951937390170      3.21809093622404      0.20838235232258
  H   -0.11631378044266     -3.65979855611417     -0.14327222715251
  H   -1.35973265224880     -3.29107284233616      0.84355896443252
  H   -2.53338739410057     -2.84233080812323     -0.94737503596608
  H   -4.21445186739199     -2.44514536770524     -0.74066434633961
  H   -4.87577139947484     -0.80054119666670      0.57575996530340
  H   -4.79468156208778      1.41622890786539      1.34975071567856
  H   -0.67708591726123      2.85230454609188     -1.45532469839915
  H   -2.14351757514834      3.68625783614307     -1.03184132604443
