25
Coordinates from ORCA-job ./opt_b97-3c_parallel
  N   5.18469116261134      1.79538873920907      0.00348959259243
  C   4.15641208219020      1.25370053785621      0.00381980888450
  C   2.94888405428425      0.51372372604343      0.00328268166580
  C   1.76291110874344      1.23839620988582      0.00607469513348
  C   0.43553612811441      0.82737459185970      0.00375460824812
  C   -0.55161272804520      1.85416676731497      0.00354026836533
  N   -1.85592443475741      1.67119408978313      0.00092985627986
  C   -2.27480342249096      0.39837436647320     -0.00054963075241
  C   -3.56346905137804     -0.14841950843068     -0.00228902675595
  C   -4.79396988595589      0.51832544361595     -0.00360333479886
  N   -5.82734883766232      1.05012955697564     -0.00473250740906
  C   -3.35722317077488     -1.55980118103292     -0.00208689678622
  N   -2.06941027124974     -1.92072844828466     -0.00063955868830
  C   -1.37697480783055     -0.75242839408434      0.00044813677794
  C   -0.00149439137300     -0.54672245124276      0.00203830129317
  C   0.83848302045015     -1.69380394395982      0.00782559380724
  N   2.12932423026447     -1.86112177482896      0.00321359241018
  C   3.08993416525718     -0.90809955516495     -0.00567463001239
  N   4.32021663164048     -1.42916844220015     -0.02176681526549
  H   1.90475141503154      2.31241590728392      0.00980111492403
  H   -0.21200686113197      2.88458313483170      0.00525115028293
  H   -4.14082441440770     -2.30298227938895     -0.00295077031781
  H   0.27931155171884     -2.62437718594984      0.01638658536792
  H   5.15067572557450     -0.86197068969697     -0.02975208991605
  H   4.40166468867685     -2.43110146146779     -0.02367981663037
