28
Coordinates from ORCA-job ./opt_b97-3c_parallel
  N   -5.19696118167915     -1.22769996890679      0.23386858617220
  C   -4.19621488615567     -0.64307731996028      0.12414165824171
  C   -2.94967635679059     -0.01496150331566      0.01352483594900
  C   -2.68701665645212      1.35409400832933     -0.16547188186971
  C   -1.29990875984397      1.52160275641779     -0.14748689942992
  C   -0.49180234796882      2.64144398934652     -0.23749068367054
  N   0.82798102229408      2.59467622086800     -0.13622836433710
  C   1.45847563901732      1.39885346323050     -0.00243062606172
  C   2.83940253836348      1.51734992227042      0.18265830565317
  C   3.83606277125241      0.55933735735795      0.30155906314169
  C   3.78066991965432     -0.80831341226492      0.18058475257859
  C   2.64537048401506     -1.58930437683269     -0.10048245270765
  N   2.85592951673317     -2.94422040022182     -0.25523605215005
  C   1.32708788839106     -1.14475099091645     -0.16138124328795
  C   0.73349439570379      0.11987710089937     -0.02199883185172
  C   -0.66955242012936      0.22809492545034      0.01278584057299
  C   -1.71320726696378     -0.71858108372409      0.13485855367766
  N   -1.62009006742459     -2.07659669521045      0.32319336852130
  H   -3.43176174245513      2.12565935753697     -0.26768303467509
  H   -0.92426957337565      3.62729291716359     -0.37876036785575
  H   3.16032266875972      2.54837265762564      0.24560410992429
  H   4.82475588341201      0.96110083060221      0.49024292266365
  H   4.71653040047078     -1.34407969003922      0.28730902465604
  H   3.77956822471067     -3.23142226235806     -0.52724997906660
  H   2.12945204992570     -3.46967632847545     -0.70968746903782
  H   0.62015560755821     -1.93179518718453     -0.39055009555034
  H   -2.49208941702497     -2.51705981328725      0.57825527904423
  H   -0.86465724649797     -2.37749503380091      0.91969314745546
