27
Coordinates from ORCA-job ./opt_b97-3c_parallel
  N   4.93717978479121      1.96316804867724     -0.18574857160493
  C   4.00107369869365      1.27570045770681     -0.15057126999077
  C   2.87900567383756      0.43587364341153     -0.10247758704511
  C   2.88958695128778     -0.96476409613733     -0.11080075545050
  C   1.57469371689185     -1.46260657253613     -0.05123605341531
  C   1.24116309793439     -2.81820136591914     -0.12631951133692
  N   0.93417155302062     -3.94173551850362     -0.16284756846253
  C   0.68886507091958     -0.34069184371476     -0.00318428085284
  C   1.52527976177510      0.84943298862876     -0.05686447339561
  N   1.04948205232550      2.09409865126185     -0.06764127787039
  C   -0.26123344324477      2.23726691850573     -0.02323719437638
  C   -1.18569002545045      1.17188871257090      0.04701269518067
  C   -2.59712837508111      1.47711962876391      0.08312623216156
  N   -2.99383723813381      2.61118636630047      0.67471198281764
  N   -3.55275248561877      0.80279380929166     -0.55077820405378
  C   -3.47509372565192     -0.46926970735883     -0.88108387949403
  N   -2.74895694074431     -1.43353519591442     -0.35314910399233
  C   -1.61955541715930     -1.26767646499888      0.31350994713981
  N   -1.29154420092646     -2.20018448772022      1.20067146393766
  C   -0.68935163788689     -0.16054387182038      0.08083254618383
  H   3.77262592588504     -1.57874982835873     -0.17249276278915
  H   -0.62956734886265      3.25313120922312     -0.10968946961886
  H   -2.37166563562136      3.16541732905490      1.23190069369138
  H   -3.95653437055133      2.88839279900647      0.59153825094915
  H   -4.20485330968072     -0.79741281003846     -1.61353046617252
  H   -0.37448326404581     -2.22063361524075      1.60973925267221
  H   -1.81260452610263     -3.06189274684169      1.20589985028798
