31
Coordinates from ORCA-job ./opt_b97-3c_parallel
  N   -3.99258159088052      2.71457911946257      0.78362343621814
  C   -3.41383139887526      1.76112000120409      0.45438068863258
  C   -2.66961667423081      0.61452876774189      0.08656095595418
  C   -3.37847916463319     -0.37686734756609     -0.59515154328406
  C   -2.99266456692340     -1.66083731880820     -0.89747164182499
  C   -1.81139058174740     -2.29260002349464     -0.52925487270197
  C   -0.62726054789437     -1.78422479223819     -0.01476073129687
  C   0.41430013713512     -2.74954822395574      0.24843089266497
  N   0.07290189365085     -4.08767949924052      0.36584142238197
  C   1.73902891254263     -2.36786862849088      0.27583575284075
  C   2.08046784096473     -1.03819803682022      0.06230410743187
  N   3.32276786758352     -0.53258967067332      0.00184619685121
  C   3.16133746086149      0.80232530083637     -0.14707439281799
  N   4.22543571550952      1.61753002649874     -0.26420575078770
  C   1.79604114084755      1.20636300361510     -0.14408144104173
  C   1.38753553171032      2.49965413103211     -0.45257685122480
  N   1.09704002049397      3.60466488283459     -0.69265860453238
  C   1.04973888209740     -0.00979499950610     -0.01597128026318
  C   -0.29430824011916     -0.36004429386015      0.07011034045361
  C   -1.28576423181935      0.63136894679296      0.42420646428397
  N   -0.85570993601919      1.67394907504798      1.14170942531959
  H   -4.38958533953443     -0.10275227743348     -0.86823028123511
  H   -3.72116767778282     -2.27162662924871     -1.41332070953124
  H   -1.78466139465657     -3.35352211260378     -0.74318026537451
  H   -0.70620322871126     -4.28849118103283      0.97008375284348
  H   0.85006867949883     -4.69884886173496      0.55177061799368
  H   2.52407200224043     -3.09274453939889      0.44891728921751
  H   4.08514027760917      2.56153874761888     -0.57802058379037
  H   5.10954369616112      1.18963381830602     -0.47428634010216
  H   0.11711754428259      1.75952176125530      1.37478817748553
  H   -1.43330788286098      2.48530495946028      1.28638900603640
