29
Coordinates from ORCA-job ./opt_b97-3c_parallel
  N   -1.84594721345431     -3.77960465363599     -0.27601059544961
  C   -1.21168938265677     -2.80732758758024     -0.21913247453404
  C   -0.37506069935510     -1.66962052388008     -0.16022560514015
  C   1.01398362809036     -1.85324234468870     -0.17326199273711
  C   1.82658443631255     -0.75938681870767     -0.05642807858969
  C   3.23863492512465     -0.57136045349626      0.04696241815715
  N   4.20043335099445     -1.51442845181491     -0.03065122001907
  N   3.56045766867724      0.72507598900894      0.20673328088400
  C   2.39371056884754      1.41181189195498      0.19243416182781
  N   2.41478443762559      2.75538446548118      0.34887806983324
  C   1.26032491583835      0.56012865572791      0.01777074740093
  C   -0.11537341249884      0.79816148891118     -0.09693659799502
  C   -0.61254324529860      2.09620869679415     -0.35517498944248
  C   -1.91633850046420      2.55249290237320     -0.41215847174341
  C   -3.10675359788366      1.89868837471764     -0.17176945159855
  C   -3.22207900381905      0.53860008978994      0.17539821680472
  N   -4.43912760130731      0.08921685686271      0.59098017218833
  N   -2.30196110564503     -0.41693455230453      0.14825755585929
  C   -0.98493588727083     -0.38146325908068     -0.03972700143389
  H   1.40308256131115     -2.86002510825700     -0.25185518200499
  H   3.95621272654414     -2.47638167850223      0.11546865050332
  H   5.12558836993227     -1.24176173602108      0.25222969978691
  H   3.28174799237136      3.12896550595037      0.69958260761703
  H   1.58102234099884      3.19832640186635      0.69662967460759
  H   0.13065242192478      2.82496276958292     -0.64548718000998
  H   -2.01550586029227      3.59844109111426     -0.68213628980423
  H   -4.01835978829378      2.48089323720165     -0.21913767552263
  H   -4.56118159932389     -0.90823901601950      0.61405324555082
  H   -5.25701939962902      0.65522107975176      0.46272147370366
