25
Coordinates from ORCA-job ./opt_b97-3c_parallel
  N   -0.58477750020551      2.54194905367774      0.34852666426457
  C   -1.14321887597185      1.32754221249937      0.11171880499841
  C   -2.54111176746642      1.33296995849866     -0.02036231856099
  C   -3.43473759824754      0.30755091056176     -0.22067254871996
  C   -3.18907852315529     -1.05855886299180     -0.23393735544166
  C   -1.97315728199525     -1.67688312966969     -0.05681027745338
  C   -0.66927172056594     -1.17015664418292      0.05123904915830
  C   0.32698824899222     -2.17754801668209      0.20046613797150
  N   1.62619804324179     -1.98818380778462      0.23709004900041
  C   2.05357726554083     -0.73245139188088      0.06808762399364
  C   3.37130141334692     -0.28353991720818      0.00331935920900
  C   3.33102189236256      1.09659626634536     -0.23598956974430
  C   2.00698543390684      1.54473922555074     -0.28304884735776
  C   1.15214317460693      0.42336424586987     -0.09676334925402
  C   -0.23242585867503      0.21450473291927     -0.02222179640052
  H   0.35758116809388      2.56204522964079      0.70883635027759
  H   -1.18750516005732      3.28256429915523      0.66077469821272
  H   -2.98551653405108      2.32115469865860      0.03466989485038
  H   -4.46893984220607      0.60978313017687     -0.33541935292807
  H   -4.04783011464944     -1.70598004110581     -0.35619315914144
  H   -2.01773277755333     -2.75986532227633     -0.02362230749584
  H   -0.01061302893126     -3.20549176462768      0.28121547946542
  H   4.24594018822476     -0.90624552445643      0.09444865576180
  H   4.19383343725722      1.73004536260939     -0.38022393111246
  H   1.73270685005729      2.54435798870274     -0.57617880425336
