30
Coordinates from ORCA-job ./opt_b97-3c_parallel
  N   -5.47607425419261     -1.15350889772692     -0.16481270363475
  C   -4.34441314318193     -0.87048421219615     -0.15281375293044
  C   -2.99870783963881     -0.46689548975766     -0.12300053388562
  C   -2.01587367700466     -1.42369146297094     -0.39763687224769
  C   -0.64927140956240     -1.33661992905655     -0.36433162644623
  C   0.19451141510210     -0.22193922308501     -0.10504290492837
  C   -0.31046066522539      1.15664358910471     -0.06102151236888
  C   0.61676768376484      2.20479944355220     -0.18707874920240
  C   1.98777713894407      2.00295393318524     -0.21864900020478
  C   2.48462852073125      0.72479647867912     -0.09647274701691
  C   3.81414374662225      0.20909430427950     -0.01770591768527
  N   4.94892337412950      0.95428444038150     -0.04825201462588
  C   3.74660304547625     -1.17917851905313      0.17507119122650
  C   2.39911546562723     -1.55546961182207      0.20018362179364
  N   1.94819492604152     -2.82187494037510      0.39648160757535
  C   1.57735800551869     -0.38158459973560     -0.00068463407146
  N   -1.58082383908481      1.55829223466344      0.13295518642174
  C   -2.71990443828848      0.90199768232484      0.20473803361254
  N   -3.76493483331471      1.65845425218244      0.63188615679360
  H   -2.40632663234475     -2.39607336581438     -0.67310967615405
  H   -0.14308764138550     -2.23268834832376     -0.69223183052331
  H   0.21056123977498      3.20494168057469     -0.20977419244946
  H   2.64438896803879      2.86245042128223     -0.29423372543049
  H   4.89096915793511      1.88193145423524     -0.42865360656633
  H   5.81592719589421      0.48431042571079     -0.23871412304225
  H   4.58728981796076     -1.84148070351719      0.31316872300517
  H   2.59775007272336     -3.47269627463925      0.80529064679473
  H   1.00407057287023     -2.92255107408295      0.73299118842645
  H   -4.70804511107426      1.32081516700149      0.55747890086564
  H   -3.61314584625956      2.64976476850039      0.66962701230043
