28
Coordinates from ORCA-job ./opt_b97-3c_parallel
  N   -5.18064824376255      1.22810182348145     -0.00470323339822
  C   -4.09194660530595      0.81624572379038     -0.00357193311275
  C   -2.80409032496302      0.23349088128479     -0.00201863053474
  C   -1.71711404777096      1.11743440391725     -0.00168457079969
  C   -0.34528102388815      0.94046685124949     -0.00070146873523
  C   0.42705478001915      2.13509962939268     -0.00003913684306
  N   1.74146875386032      2.21190563827631      0.00143271391268
  C   2.41799263892015      1.05268145553302      0.00135919539595
  C   3.78441946675164      0.85812141684585      0.00056865775164
  C   4.00785275069459     -0.54648311242005     -0.00832602369871
  N   5.23849580458761     -1.13269047764260      0.03533805146861
  C   2.77757151903574     -1.23315507448630     -0.00649234027580
  C   1.75832171099445     -0.27687412434367     -0.00166806597729
  C   0.36072311546889     -0.33725332111630     -0.00004137466680
  C   -0.27839207591533     -1.58887909180757      0.00145253988010
  C   -1.59400419392305     -1.96803431491170      0.00193768905701
  C   -2.76878227408663     -1.18568189754149      0.00006986365166
  N   -3.94263173218178     -1.85148961528238     -0.00078633887355
  H   -2.02290926594186      2.15741147643931     -0.00221570139339
  H   -0.10723795585479      3.08025348233018     -0.00057615135428
  H   4.53855273565244      1.62835696106669      0.00826489507897
  H   6.02546741922524     -0.57423182410135     -0.24400329277594
  H   5.30340957793945     -2.09661071628129     -0.24071534346594
  H   2.67723151420285     -2.30768884462737     -0.00482673313356
  H   0.40826758999903     -2.42663391318971      0.00350061986288
  H   -1.76613997244741     -3.03819223664512      0.00409436062484
  H   -4.82106428894499     -1.36303053535425      0.00348006755550
  H   -3.96390593866506     -2.85309945735626      0.00733065879916
