34
Coordinates from ORCA-job ./opt_b97-3c_parallel
  N   5.76036486108554      1.32273723791612      0.00184381682955
  C   4.62170205824545      1.07642121751385      0.02895560858151
  C   3.26036534314052      0.71728766884704      0.05376597698465
  C   2.32905167096522      1.72972018314602      0.32680673587880
  C   0.96239693549133      1.72178387589478      0.34017680437848
  C   0.01286748729496      0.69139285539695      0.09247160816158
  C   0.37311701225496     -0.72524961056582      0.05190264381164
  C   1.66990756285582     -1.22510075729520     -0.08010463685004
  C   2.94372509299086     -0.65051826295683     -0.14502750939995
  N   3.97260348716462     -1.49972889582870     -0.42257288391297
  C   -0.68538495080104     -1.68684574474715      0.09074960656133
  C   -0.39429581282032     -3.06103413640306      0.07186444717455
  N   -0.21548996847222     -4.21275970181820      0.05263449030660
  C   -2.05818383961779     -1.33021488860318      0.08282254657332
  N   -3.03243188728773     -2.30297215082548      0.11113550277230
  C   -2.37956953376410      0.01469118390253      0.05897192684798
  C   -3.62348712287370      0.68587400789918      0.05633916892318
  N   -4.85797072596822      0.08737625382498      0.17681623265862
  C   -3.38833275743239      2.05995748989969     -0.13014402421393
  C   -2.01085278747716      2.27497998304917     -0.19413200329724
  N   -1.41873388707327      3.49673943926686     -0.37340595704773
  C   -1.33754706504236      1.00893204529061     -0.02507556917235
  H   2.77771373782976      2.68697604843282      0.56287520325685
  H   0.52940556540141      2.65985700669874      0.65276441715951
  H   1.70186315932782     -2.30199470502203     -0.19109880365029
  H   3.81828077670178     -2.48868039596292     -0.35621207384822
  H   4.91973072246063     -1.18960770711599     -0.29059369739072
  H   -3.85167037636565     -2.09529731975853     -0.43696363768243
  H   -2.70540233567919     -3.24579124789741     -0.03580180005887
  H   -5.61813207230637      0.72616871780179      0.34491687678911
  H   -4.88659652604292     -0.69139776574398      0.81728845441750
  H   -4.14770797532305      2.82381999399895     -0.20383270281448
  H   -0.50820547954402      3.48768694690581     -0.80442605383059
  H   -2.01828513891969      4.20841204455842     -0.75788226399808
