25
Coordinates from ORCA-job ./opt_b97-3c_parallel
  N   2.79748770524627      3.03252166399834     -0.31556086520712
  C   2.16903904379401      2.05528730097542     -0.26799845078178
  C   1.58022588959716      0.77321260648311     -0.15251515829111
  C   2.48164020302917     -0.29242503177029      0.23665100837992
  N   3.68489913085065      0.07511816522763      0.71281615707338
  N   2.29278558325341     -1.59112225126226      0.14123473707122
  C   1.14332637968900     -2.18270801508670     -0.21179974159831
  N   1.29398432254503     -3.44439518887417     -0.66777682622635
  N   -0.12229258191069     -1.78951348714258     -0.09694877149766
  C   -0.58236516021520     -0.54868090397393     -0.04394453603423
  C   0.19468233859714      0.69872577857761     -0.30188014089144
  N   -0.40397839435901      1.87776758681699     -0.58716922396517
  C   -1.71385700093254      2.00261796426741     -0.44960145843006
  C   -2.51828149253837      0.96982951815536      0.01460982154688
  C   -3.89301431200306      0.80351668877238      0.24822365529821
  N   -4.18922902215161     -0.48064428468723      0.57062642475090
  C   -3.03108888011318     -1.16401193071969      0.53074442699077
  C   -1.94049208313713     -0.32446291208227      0.20660265070845
  H   4.36555053778735     -0.64497707872193      0.87201717249073
  H   3.97526543006456      1.03642996835642      0.73217306444336
  H   0.47658032769807     -4.01794982021426     -0.76423672365386
  H   2.19751935381867     -3.87623556976120     -0.61194968577892
  H   -2.12847345558901      2.96842642316945     -0.71914568440620
  H   -4.66965494997463      1.55179701112651      0.19342117838273
  H   -3.00165431854128     -2.22310986132735      0.73436215102651
