23
Coordinates from ORCA-job ./opt_b97-3c_parallel
  N   4.22085321837530     -0.76944922466128      0.08244926063241
  C   2.98419494619381     -0.19807350664844      0.03000141237516
  C   2.90289061056643      1.19516223920036      0.01789595209555
  C   1.75496036898051      1.97416653942904      0.00156481003695
  N   0.46876285400364      1.69478488521085     -0.00430122171644
  C   -0.12508661794943      0.48837503790562      0.00187279711617
  C   0.52110571900753     -0.85211893060233      0.00953874897297
  C   1.88774098976673     -1.07858599571866      0.02716015090125
  N   -0.20270106448690     -2.01189615579203      0.00423040126094
  C   -1.52389768772781     -1.96457977013610     -0.00225446349870
  C   -2.24304443941064     -0.77763484097123     -0.00280305902028
  C   -3.59600801631932     -0.42300251429250     -0.00990823515374
  N   -3.75056260034625      0.92829165156537     -0.01266011051324
  C   -2.51858228146595      1.46483178385616     -0.00795001303781
  C   -1.51960401224044      0.46492793080524     -0.00092145869130
  H   5.03112112106568     -0.20814528036591     -0.10418551256953
  H   4.31856386287789     -1.75031658774281     -0.10473951045947
  H   3.83811175501280      1.74310060229338      0.02363046484751
  H   1.95013979928557      3.04477667195288     -0.01032916993629
  H   2.12751594105870     -2.13513694710501      0.04094336400498
  H   -2.02855778324170     -2.92621945345278     -0.00705604615467
  H   -4.45558651433920     -1.07634442219884     -0.01318712791223
  H   -2.37080668986701      2.53283963586901     -0.00938110368016
