28
Coordinates from ORCA-job ./opt_b97-3c_parallel
  N   -4.52648542117564     -2.93909556286874     -0.06961198894715
  C   -3.86057232348265     -1.98812074548962     -0.04012733636017
  C   -3.07023261480635     -0.80948498830389     -0.00363106977094
  C   -3.78078417581845      0.41758543783140     -0.03601435559314
  N   -3.35590697730171      1.63590439140902      0.15438556054801
  C   -2.08559426127412      2.05746805985988      0.26824014045664
  C   -0.86220313499875      1.45503548930199      0.02535932797655
  C   0.28546987705295      2.31172128709669     -0.06527865253240
  N   0.12198043825208      3.68490685256582     -0.10780561151136
  C   1.57093486168536      1.78479755874336     -0.05746787331736
  C   1.77220902875021      0.41594117403463      0.00455166870578
  C   2.90784084846812     -0.39894265048756      0.01276627370873
  C   4.25213908020999     -0.03477773836662      0.00986848778358
  N   5.38666721580678      0.23111144254133      0.00897265668208
  C   2.39107541776342     -1.74537791463295      0.02949687494257
  N   3.13674360755191     -2.85812128933461      0.01657724273204
  N   1.05046480040538     -1.78770496236984      0.03375447666786
  C   0.64398514500997     -0.49502344426046      0.01594179066479
  C   -0.66746715737036     -0.01051336655078     -0.00804130613273
  C   -1.68936745019391     -0.95918594216469      0.00620479137172
  H   -4.84833841556449      0.33654224875440     -0.22079129891597
  H   -2.03796309952501      3.09501291990179      0.57894812105757
  H   0.97206432686869      4.20383544390575     -0.24832946132997
  H   -0.62202165625886      4.03233047516046     -0.68779491994643
  H   2.42165555844830      2.45313957318227     -0.11826518404142
  H   2.68382659809051     -3.74474345424860      0.14360996016726
  H   4.13086986484834     -2.80655545626169      0.14192923414865
  H   -1.32701592714138     -1.97953316724902      0.00011507548499
