31
Coordinates from ORCA-job ./opt_b97-3c_parallel
  N   -3.10129630612935     -3.32353753564554      0.58874551618982
  C   -2.61921249408445     -2.28271063091343      0.38124156435035
  C   -2.06551482275427     -1.01246773893122      0.13333110986237
  C   -2.98454003747674      0.05714011909908      0.11502204780490
  N   -4.30519280542729     -0.23988439623761      0.28093051750067
  C   -2.69376042873258      1.39160073609361     -0.17352772198005
  C   -1.48247927214549      2.04986983289218     -0.21445505298668
  N   -1.55428207935101      3.39815182592458     -0.48031521823501
  C   -0.16519884709872      1.52555848569107      0.05395851196654
  C   0.82099130092481      2.47725984737767      0.37615583245956
  C   2.16956132251749      2.19263839408148      0.47973954800869
  C   2.58689112295480      0.90525861736306      0.19920860451717
  N   3.82438564100741      0.35818060018497      0.20542518327553
  C   3.58446542716396     -0.93011035956694     -0.09280000570104
  N   4.58900812149431     -1.83263868963527     -0.25164651362767
  N   2.28512353029850     -1.27885589178724     -0.28747497971556
  C   1.60863258356166     -0.11146276885186     -0.10790658034025
  C   0.21940494706680      0.14450945943585     -0.11983982010249
  C   -0.67472301935983     -0.99152010465701     -0.19780318238010
  N   -0.12143965562779     -2.16912289304951     -0.49013670510039
  H   -4.57468377087975     -1.16481519019514      0.56767851875243
  H   -4.93150525646835      0.49802100045850      0.54266050968622
  H   -3.56514492721817      2.00298314047653     -0.37957741592986
  H   -2.44255780086025      3.74895250032852     -0.79142171153918
  H   -0.77007961472023      3.81171435426279     -0.95129666902051
  H   0.50208010831914      3.48041051663151      0.61371400197560
  H   2.87791794496138      2.95581069361094      0.77173345675660
  H   4.33510588188002     -2.79884780639597     -0.14741532131021
  H   5.46507334945766     -1.57014836531336      0.16457513857129
  H   0.91201024781102     -2.22763979178996     -0.52401617294030
  H   -0.67640513258384     -3.00731073664261     -0.45107756166802
