34
Coordinates from ORCA-job ./opt_b97-3c_parallel
  N   -5.39661041511960     -1.15922783916261     -0.65828541643539
  C   -4.32717518941924     -0.73180049660003     -0.48089088882579
  C   -3.05046929358574     -0.21375457030281     -0.26947705129641
  C   -2.75194904692393      1.11623846202475      0.09348260844075
  N   -3.66824817460347      2.10182711019789      0.27225726151154
  C   -1.34626717414030      1.23999766465226      0.20465080182609
  C   -0.55065668338683      2.36995233827921      0.32803917510185
  N   -1.08666040542719      3.63675216662857      0.46254385221257
  C   0.83559004391983      2.19507275192460      0.28484716053362
  C   1.45089677659446      0.96454918410286      0.10342059274522
  C   2.87462819101026      0.95160227513680     -0.11783560629122
  C   3.54274823875561      2.20061266765971     -0.07518895948267
  N   4.08852570811497      3.22666352871475     -0.03392597731778
  C   3.69165303310473     -0.09782862758352     -0.52830027566498
  N   3.51849997685181     -1.40309431658025     -0.62729098014885
  C   2.45736983957302     -2.06093296583084     -0.15697453959242
  N   2.64300382694336     -3.39934122439420     -0.13889922348828
  C   1.20174146132815     -1.55311008975062      0.30259302258834
  C   0.43912374084921     -2.47456835540902      1.02271758863281
  N   -0.16812707699155     -3.29998711087734      1.58705444942250
  C   0.63849221006518     -0.24316398500413      0.08983052062099
  C   -0.74599302199661     -0.05605169878442      0.01665288243316
  C   -1.83987464890374     -0.95519945330261     -0.31045800699687
  N   -1.80336320433216     -2.23021535828713     -0.71616005026217
  H   -4.63403193836777      1.81376405284219      0.28868474450920
  H   -3.44775029089621      2.80411463114405      0.95983396042301
  H   -1.90182205350110      3.81634896696093     -0.10320621797935
  H   -0.41421855820404      4.38140928131946      0.37226696720941
  H   1.45831187930793      3.07656941994649      0.33768916945237
  H   4.69235460669201      0.21129189238279     -0.81607339246776
  H   3.57634795522593     -3.72374754765481     -0.31798169305770
  H   1.99072471554315     -4.02081214677934      0.30400864092535
  H   -2.69163067476146     -2.66760771659988     -0.90605189144917
  H   -1.10733606761214     -2.85740875475510     -0.34618643512371
