31
Coordinates from ORCA-job ./opt_b97-3c_parallel
  N   -4.78819044281914      1.74242882882271      0.00282344412157
  C   -3.82975616663671      1.07902084070498      0.00936867292061
  C   -2.73672359195412      0.21478307091812      0.00237384412439
  C   -2.82936986112276     -1.21009093726141     -0.10882222420606
  N   -4.01416200445408     -1.88352958855837     -0.14563946031562
  C   -1.54739884314763     -1.76758900826057     -0.11507880334265
  C   -0.60733332062658     -0.71032043979513     -0.03472431768357
  C   -1.36980103355607      0.53136006624407      0.01506153898389
  N   -0.80594995125163      1.73226507661821      0.02368901496784
  C   0.51336227247664      1.81422875680676      0.01908670792521
  N   1.00037043711029      3.15105588694857     -0.04444540100759
  C   1.39635540130146      0.69627138513760      0.06007002059484
  C   2.81791318776857      0.90659425717771      0.17456561764763
  N   3.27063436551662      2.05288456560808      0.71619813792628
  C   3.81023264551794      0.03321846534329     -0.32100154992178
  C   3.68739989003706     -1.29499876933895     -0.63619097362667
  N   2.73623167972226     -2.15715989311514     -0.31286516296598
  C   1.55142747845837     -1.84947232133217      0.18737831695053
  N   0.96351543043563     -2.84769549347100      0.86327093412291
  C   0.78668145374711     -0.61998083561441      0.02200568622975
  H   -4.82946989639056     -1.34351614938861     -0.38414150726244
  H   -4.00588741140867     -2.80701718359310     -0.54107803171816
  H   -1.34820726437241     -2.81527246652255     -0.26902242178916
  H   0.18877196098457      3.75514835581809     -0.03644029552132
  H   1.50923873968245      3.32337249374276     -0.90385172981137
  H   2.61611361450279      2.81621938775971      0.86852937907023
  H   4.25426066767839      2.25162427290291      0.69484173328311
  H   4.79267339396870      0.46654761659605     -0.46832648628954
  H   4.53601137130861     -1.75135514379062     -1.13786309754732
  H   0.06473726782137     -2.72568026487256      1.29521011545281
  H   1.45407322250074     -3.71959316083426      0.94877442008784
