33
Coordinates from ORCA-job ./opt_b97-3c_parallel
  N   3.97294528577361      3.39259526896483      0.59244998198297
  C   3.38091961706274      2.40598772518509      0.41791589387945
  C   2.72577863676500      1.17356045775172      0.19342561579630
  C   1.34662933915844      1.20544902562664      0.10142949143027
  C   0.36827338890312      0.21461921071793     -0.00642146660133
  C   0.57706931787015     -1.22840261682902      0.02963914675024
  C   1.84233344441088     -1.82499137833731     -0.32377029352363
  N   1.82595365256844     -3.09616535630607     -0.78657096687348
  C   3.12054306736394     -1.24720059351911     -0.29047003248064
  C   3.56496203568567      0.03008123517901      0.00421456296637
  N   4.90436340501880      0.22999890929712      0.09899036646678
  C   -0.56280006980689     -2.03091900323675      0.26244688325343
  N   -0.46413045399028     -3.42097239720258      0.50835909323775
  N   -1.82554864447778     -1.59451633257322      0.26024226595828
  C   -2.04815080415368     -0.31193514659056      0.04882916832057
  C   -3.27690186019985      0.36803990071685     -0.02669901098437
  C   -4.57044903613922     -0.14083421386350      0.06809687218817
  N   -5.67904104860720     -0.49248115850131      0.14334768847495
  C   -2.96342093848794      1.75334171823613     -0.16685849989047
  N   -3.88922643674836      2.72407437734763     -0.31993381765404
  C   -1.56115925648284      1.92936481340320     -0.17775276235171
  C   -0.97005153634186      0.67517158238670     -0.05860343785281
  H   0.94159118105962      2.20481137102301      0.17534635872110
  H   0.97750931659380     -3.64399705126815     -0.68551244423247
  H   2.69060553231654     -3.58019721589386     -0.94069695766494
  H   3.91769978866028     -1.94233344297835     -0.53276625706865
  H   5.53846320182093     -0.49837289794832     -0.16981132326821
  H   5.27578505006702      1.16351633669683      0.12766420317522
  H   0.11595577299826     -3.63495469808753      1.30872965399384
  H   -1.39804156392249     -3.77406900782387      0.66676068774927
  H   -3.62687445847277      3.68126240009761     -0.17322804819686
  H   -4.85345239270607      2.49878282645851     -0.14466960966395
  H   -1.07376111036252      2.88104666707038     -0.31946048013979
