30
Coordinates from ORCA-job ./opt_b97-3c_parallel
  N   -4.27092592351369      2.55451614143699      0.31014239435687
  C   -3.49427200840802      1.69406523932496      0.19434197672011
  C   -2.54144595824497      0.66952473675854      0.05632622904641
  C   -2.98932546996137     -0.56220087368527     -0.52811013772953
  N   -4.07896185419899     -0.52218689075869     -1.31907679329878
  N   -2.50951090889709     -1.76072441367481     -0.27777321131098
  C   -1.34144027425540     -2.06500401398018      0.26635784896677
  N   -1.29596152350172     -3.27970790020822      0.84043703482907
  C   -0.12065689074650     -1.31050591754659      0.17165341844716
  C   1.08674530956980     -2.03947147591168      0.05111501868120
  N   2.28994694742678     -1.50864037471864     -0.04669741248867
  C   2.36268341999422     -0.17877205998280     -0.05490802843680
  C   3.50881503365649      0.63039414935999     -0.17301436424730
  C   4.83440302343084      0.19190749189855     -0.27966600572703
  N   5.94171431349901     -0.15351335201235     -0.36559453655089
  C   3.06466295737301      1.97368768055457     -0.19447134627328
  C   1.68180181319536      2.03166858735015     -0.06123513501902
  C   1.19321199755014      0.70505854404619      0.03451260772680
  C   -0.06667618918588      0.11184694009313      0.18400362348056
  C   -1.23099090544284      0.94082507670693      0.47665760560543
  N   -0.99306279688893      2.08518946513661      1.12337400503581
  H   -4.58811753456431      0.33107890374134     -1.46216707044691
  H   -4.52815869762494     -1.38959992055551     -1.55066877795705
  H   -2.11161810712539     -3.86429989696681      0.80537637040351
  H   -0.49423736190983     -3.58946004031369      1.35476921489842
  H   1.04343309764847     -3.11860721813381     -0.03736239704397
  H   3.71602574382770      2.82512301717842     -0.31365249847562
  H   1.10758294870691      2.93982840042506     -0.14184304946689
  H   -0.05748785635951      2.30392374934049      1.42077554467244
  H   -1.72946653654996      2.73951987789692      1.32492026380131
