27
Coordinates from ORCA-job ./opt_b97-3c_parallel
  N   5.25431330299086     -0.50513342598984     -0.36315395664218
  C   4.12565969922437     -0.74514675359433     -0.22104940101267
  C   2.77652958955283     -1.07728413289635     -0.04343262285028
  C   2.25812483707249     -2.37788873547853      0.18048413559202
  N   0.92535443670053     -2.40911088476296      0.31527144200467
  C   0.52423246246173     -1.11950182801409      0.19536486885111
  C   1.65031660552013     -0.23528070544928     -0.03351435759461
  C   1.40972687698993      1.13280730660615     -0.20057344551169
  C   2.44625931957985      2.06254190606055     -0.46952398707616
  N   3.25878876333458      2.86169889819376     -0.68642423434783
  C   0.10290596906753      1.61335763471328     -0.09374785839174
  C   -0.99262731764488      0.77150041282975      0.12046213688295
  C   -2.29498305485501      1.35836638341981      0.35145193164293
  N   -2.34359092740551      2.61152951402306      0.83504968709016
  N   -3.47516557978510      0.83913235119321      0.05486618175758
  C   -3.72167858517267     -0.42943124578467     -0.22468494279836
  N   -4.81898377339013     -0.68673890041438     -0.94687668682357
  N   -3.09630594978043     -1.54957723979032      0.23443930028006
  C   -1.82057970762324     -1.60524122871942      0.45957982713982
  C   -0.79197944932787     -0.63881267410590      0.23555887966302
  H   2.84582860517756     -3.28125773927356      0.24691140701351
  H   -0.05434556395031      2.67094453533302     -0.24183470948593
  H   -1.54396018891458      3.03348041254008      1.26760796493196
  H   -3.24586523973557      3.02800367303444      0.98245363266197
  H   -5.39941037920352      0.06749215800893     -1.26466817285076
  H   -5.12839074641840     -1.63631548958394     -1.04559933418150
  H   -1.45859486576434     -2.56275613659879      0.81825841505355
