26
Coordinates from ORCA-job ./opt_b97-3c_parallel
  N   -5.92979482473353      1.43526452389866      0.00314908503348
  C   -4.85475324815957      0.99202662900912      0.00180162424220
  C   -3.54703718905832      0.45597895234287      0.00078507970393
  C   -3.42260868754236     -0.94504680143063      0.00184107436171
  N   -2.36799657095651     -1.72115928927104      0.00097273795411
  C   -1.06253202383088     -1.35543033879486     -0.00064128078856
  C   -0.17399260444568     -2.43974916050492     -0.00145336579266
  C   1.20570545401452     -2.29863553878787     -0.00205007461008
  C   1.75380282187302     -1.03413120390141     -0.00193653355826
  C   3.08928178094086     -0.55914258043980     -0.00246942977840
  N   4.22449408390548     -1.26542870621508     -0.00257824230069
  C   3.03398368617775      0.88192436324528     -0.00231435182265
  C   4.18370299755014      1.68233237611919     -0.00283480198282
  N   5.18665743076809      2.27123985759172     -0.00332941005270
  C   1.70246298505247      1.27645730963549     -0.00180748262583
  C   0.88496551807104      0.11765064526000     -0.00147603299575
  C   -0.50616829911290      0.01478583915630     -0.00138287584922
  N   -1.18387097382899      1.19381045713716     -0.00217699639866
  C   -2.47241615927133      1.37754014790417     -0.00139741053341
  H   -4.36344023957864     -1.48891196568642      0.00357797138263
  H   -0.62339312560308     -3.42110236321545     -0.00116674449521
  H   1.82373687171997     -3.18881360464889     -0.00247748619971
  H   4.22373245196140     -2.26779451134596     -0.00454906089421
  H   5.11567364082648     -0.80060781634646     -0.00446200621781
  H   1.34518220973428      2.29134928905852     -0.00169256231200
  H   -2.76878279777372      2.42336164853029     -0.00251968086946
