31
Coordinates from ORCA-job ./opt_b97-3c_parallel
  N   5.74798505495527      1.08879695531350     -0.40214284415468
  C   4.70159843302578      0.58447957286974     -0.33178242997721
  C   3.40863077380794      0.02775828787374     -0.21218294867540
  C   3.30290682921817     -1.34486754578955     -0.42659710668140
  C   2.26163825921408     -2.19473152892694     -0.16993474008615
  C   0.94857708890833     -1.89863839869769      0.22455090752990
  N   0.21446801282646     -2.95408270262609      0.64082011803840
  C   0.28356561535148     -0.62712238812599      0.10835829471522
  C   0.96365243638500      0.65587807037435      0.14024328706921
  C   0.16576763207648      1.81941361209255      0.08633790491918
  N   -1.15688852481789      1.86653622573689      0.04443204465885
  C   -1.79692147134436      0.70798780068158      0.04161232156730
  C   -3.18608014824603      0.49720117771784     -0.02667366687134
  C   -4.21173245575004      1.44141282706367     -0.06828848402453
  N   -5.12539162318734      2.16238683902290     -0.11393656900723
  C   -3.38513858420090     -0.90577620881629     -0.14171383855109
  N   -4.60409196852425     -1.49580383774117     -0.23325257894995
  C   -2.14220434571043     -1.56518422882544     -0.09776246190618
  C   -1.12506323717920     -0.59576466037212      0.02720835804830
  C   2.37692506995574      0.89598604579745      0.24299491424216
  N   2.77991575951362      2.09194672177538      0.71427513992545
  H   4.22095745742940     -1.82138998931738     -0.74524373044186
  H   2.49071895533435     -3.24999514271185     -0.25617578211129
  H   -0.66362086625028     -2.78348434404374      1.10263422464263
  H   0.68801418493427     -3.80771076808384      0.87453000330462
  H   0.64499321372494      2.78247184419973     -0.02471036722310
  H   -4.65286829336376     -2.42896046664396     -0.60068391520306
  H   -5.38412592807515     -0.90682161480367     -0.47257106428852
  H   -2.03992851361153     -2.62261306543511     -0.27243983745592
  H   3.75455631634960      2.33839040442185      0.72065110039004
  H   2.14383568925033      2.70657532831963      1.18238071075769
