27
Coordinates from ORCA-job ./opt_b97-3c_parallel
  N   -3.72598863824647      2.30362878431070     -0.29144679241326
  C   -2.80771634300980      1.59942098298757     -0.18551118349667
  C   -1.67008697989748      0.76806750991500     -0.05692141938552
  C   -0.39373672627023      1.35015268987381     -0.09239848874407
  N   -0.30267981582915      2.76031007949318     -0.21835705411403
  C   0.78300228821893      0.55703385992996      0.00435445447340
  C   2.05384063933832      1.17444057260545      0.27302864514277
  N   2.09268862272763      2.40732875162339      0.80398951806021
  C   3.32779402787367      0.61158694110451     -0.00450936071630
  C   3.68282544376598     -0.66460925730129     -0.32549952719266
  N   2.97821019776897     -1.80865500444148     -0.29309527911929
  C   1.69093614994665     -1.86900684485092     -0.08172260756989
  C   0.65309661320099     -0.89223360275879     -0.01364210060985
  C   -0.63589596571579     -1.44551576677476      0.05861813837721
  N   -0.97348324232898     -2.75779047858684      0.09245889816143
  C   -2.32150331404289     -2.77019187774788      0.14694967404164
  C   -2.90382306737802     -1.49044149103041      0.13350619907479
  C   -1.82632781504870     -0.61513166636788      0.07417635669423
  H   0.17043246612547      3.03340708870968     -1.07000081182733
  H   -1.21449128744209      3.19615901453318     -0.21352517551574
  H   2.97568509886213      2.86567493836040      0.93607252646103
  H   1.23601716525392      2.95327896421936      0.84264902039909
  H   4.15109420337930      1.31686095864349      0.04047677090406
  H   4.72693234313429     -0.81088127412230     -0.58576902769185
  H   1.30413539010638     -2.87752285575688      0.01320511426738
  H   -2.84822444645837     -3.71283321537311      0.19502073571485
  H   -3.95255041473473     -1.24466182569720      0.15064143742444
