30
Coordinates from ORCA-job ./opt_b97-3c_parallel
  N   -5.47970152544842     -0.47915765578280      0.01055084261729
  C   -4.32541836463845     -0.30570684704628      0.00778201773255
  C   -2.93929082672325     -0.09878361119050      0.00311065260990
  C   -2.47521102125333      1.24831839301839     -0.00403303632912
  N   -3.42055668876680      2.22250636750006      0.03703756792674
  N   -1.24347056655662      1.72916087146936     -0.02868074093841
  C   -0.06932751986893      1.08449935539564     -0.01802365472366
  C   1.05085918319943      1.92348320921657     -0.01387647899711
  C   2.37201048921073      1.47460560377580      0.02387980525708
  N   3.42060126091390      2.36568449178303      0.05577873897300
  C   2.58992838931789      0.09583533054745     -0.00985377245837
  C   3.73115367971629     -0.72797010816176     -0.05618893094233
  N   5.04144797268275     -0.35903700567055     -0.13935826949807
  N   3.39837350979516     -2.05532234474309     -0.00259301099306
  C   2.06574402574156     -2.09732955780060      0.04247918803692
  C   1.48168876191364     -0.80162661471949      0.02930124870805
  C   0.14202817488882     -0.38986578481917      0.00729681577204
  N   -0.78384525590755     -1.34737931234038      0.01496485239036
  C   -2.10437622903284     -1.25129130430992     -0.00345806559659
  N   -2.71948801066473     -2.45930229757362     -0.04667937621523
  H   -4.39268052111399      2.01878321847262     -0.10908389339405
  H   -3.09695764166284      3.16152846548641     -0.10448173387114
  H   0.84483651953435      2.98528109548465      0.00225304252673
  H   3.17033097057461      3.31643458255202      0.27236414997289
  H   4.22950114787955      2.06118860685214      0.57371802680260
  H   5.24192464445848      0.46398333994567     -0.68466664085676
  H   5.66062735957291     -1.13018835802506     -0.33594031167354
  H   1.53871602995294     -3.03760752602777      0.07644333688601
  H   -3.71128439304742     -2.55420103161030      0.07519929665568
  H   -2.13485326606774     -3.26602438587860      0.06978119991956
