26
Coordinates from ORCA-job ./opt_b97-3c_parallel
  N   5.31003483491784      1.21504899088309      0.02389760983571
  C   4.18108065185194      0.92609463712011      0.01706937227125
  C   2.83890950883259      0.50374958680120      0.00874769144374
  C   1.84951432917905      1.49818348474494      0.00427835299380
  N   0.54334529913738      1.45649203623692     -0.00339667442028
  C   -0.24087049266951      0.35175767290484     -0.00908840566478
  C   0.18240245352153     -1.06534642212256     -0.00811067751817
  C   -0.81867590408906     -2.06244151434623     -0.01437141120325
  C   -2.17289687033779     -1.79098815854139     -0.02166247971831
  C   -2.58913143142457     -0.47164457778662     -0.02299104293861
  C   -3.84066305779335      0.19819679286007     -0.02943808553957
  N   -5.07373217883672     -0.31531324114011     -0.03636666520095
  N   -3.68596458493849      1.56665546943646     -0.02740539708608
  C   -2.37721402860725      1.78510956443053     -0.01991960419794
  C   -1.61781117083047      0.57357403627141     -0.01673463702328
  N   1.43311906564013     -1.55095012442425     -0.00202561347456
  C   2.59002365049183     -0.90841029160638      0.00512977943310
  N   3.66236216127184     -1.72490391759085      0.00957845225374
  H   2.24813328078240      2.51006114876152      0.00789741704691
  H   -0.46693921013097     -3.08333256916763     -0.01330540947085
  H   -2.87690145251935     -2.61520823622934     -0.02614869768651
  H   -5.24161546641948     -1.30297635539959     -0.04056063453474
  H   -5.85867211636654      0.31111965259987     -0.04206151072373
  H   -1.97729476165790      2.78680371786720     -0.01686935526456
  H   3.49597806791001     -2.71434021596033      0.00720720104146
  H   4.60339272788491     -1.37484107200285      0.01509328334651
