31
Coordinates from ORCA-job ./opt_b97-3c_parallel
  N   5.85940971174428     -0.26464093165771      0.96139664228690
  C   4.77596693867331     -0.53038867209480      0.63039010400178
  C   3.44774726875820     -0.76224850300139      0.25533461856638
  C   2.87413461633447     -1.94518150087975     -0.20795188768952
  C   1.50515524704859     -1.72185268704744     -0.41425671967989
  C   0.48686041824109     -2.56680365140989     -0.81388279538968
  N   -0.78502629168730     -2.21079754879067     -0.75340598316092
  C   -1.12785198693525     -0.97201369183533     -0.34388649471849
  C   -2.48709070491216     -0.84384827862962     -0.00579232445909
  C   -3.26733212145604     -2.02103558517216     -0.08249874281488
  N   -4.03017649179447     -2.89928838410995     -0.07258021803506
  C   -3.14934271401426      0.29219640381454      0.56649363226815
  N   -4.30057295683945      0.06773595754683      1.22894806528774
  N   -2.81362421446366      1.57036783599584      0.49451567651832
  C   -1.73240814714096      2.09490951025347     -0.06262661875188
  N   -1.85126579370097      3.41481272146561     -0.31411943385328
  C   -0.47350695413414      1.47453061895999     -0.34904454698300
  C   0.49383772952212      2.33540568276397     -0.87728182586561
  N   1.27657659793867      3.09240310471802     -1.29955762037801
  C   -0.12870249728410      0.09859912351207     -0.21424560327023
  C   1.19218612615961     -0.34971603801917     -0.10886361680378
  C   2.43516740797962      0.25321153138765      0.31698391817339
  N   2.67389756982763      1.46614233997844      0.82828650650120
  H   3.39988802646559     -2.87280373186484     -0.36541305682792
  H   0.68978057008454     -3.57514992226150     -1.15766692465829
  H   -4.85110771437247      0.86466914115701      1.49137247929728
  H   -4.71862009316670     -0.84538595333470      1.25680664136136
  H   -2.71492363758564      3.86086902554614     -0.06715794389109
  H   -1.10335221489285      3.96405740213684     -0.69610047214127
  H   2.12565079966023      2.26082801484578      0.54095960262016
  H   3.63024812364161      1.67876870312635      1.06831734348900
