28
Coordinates from ORCA-job ./opt_b97-3c_parallel
  N   5.85391199132914      0.80268479506893      0.58340956139856
  C   4.79535682109008      0.36510018025220      0.38721289951735
  C   3.50647289112789     -0.17157506197794      0.14416934124351
  C   3.44413186101169     -1.52994211233147     -0.20646263226168
  N   2.40330020730154     -2.33450144463658     -0.27858746599416
  C   1.12594654989975     -2.00893155839384     -0.10255105054947
  C   0.43458212382056     -0.79815443725061     -0.09633205277524
  C   1.08430317555004      0.53357296908610     -0.08877297368229
  C   2.42739141257292      0.73422260770840      0.13940379798411
  C   0.24055980782515      1.68607251537739     -0.18835089941785
  N   0.77407479433535      2.94412925315301     -0.32453470276270
  N   -1.08942444694325      1.64571322947973     -0.10398000360997
  C   -1.68004954084667      0.46915394216550      0.01301804592421
  C   -3.04988611387960      0.20424354453408      0.12295315456042
  C   -4.11707928723725      1.09945245036134      0.17653864847919
  N   -5.06215352863747      1.77835826226298      0.22227018050878
  C   -3.19677193901970     -1.22290800021973      0.12437942016113
  N   -4.37959370156354     -1.84648630806342      0.22559154797108
  C   -1.92877806501866     -1.83044164373108      0.02391220610172
  C   -0.96720315793997     -0.82113727348887     -0.02554655516574
  H   4.39525084181611     -2.00988333947576     -0.41639832955775
  H   0.49585825870683     -2.88482361307520      0.01587987560531
  H   2.71943006484979      1.75896919626938      0.32976803293616
  H   0.06728398573979      3.65230629282484     -0.43935255792302
  H   1.55952386874950      3.05880315354838     -0.94033524411928
  H   -4.45163340500791     -2.84139046833645      0.12798028881118
  H   -5.23275639551289     -1.31584139126970      0.22220448468782
  H   -1.76725433481907     -2.89578515094149     -0.00335097677114
