27
Coordinates from ORCA-job ./opt_b97-3c_parallel
  N   5.14891331176461      1.06670370810241     -0.43245143897724
  C   4.07476267447837      0.64529410515798     -0.30271970353309
  C   2.76294989759006      0.12064666194706     -0.14545785379105
  C   2.63785473837135     -1.27477874495322     -0.14148146301160
  C   1.50471614984766     -2.01158194696962      0.05453857473702
  C   0.15214797618621     -1.63575412009278      0.18178081724152
  N   -0.68851214842728     -2.67018793857904      0.43410539970574
  C   -0.43974824881916     -0.33155648459012      0.02349546323291
  C   0.34644111316042      0.89592865664715      0.13742445834802
  C   -0.33469912291589      2.12858669345540      0.30896001236650
  C   -1.70068880627449      2.23773748113662      0.29400131047918
  C   -2.47741224163604      1.11193402389252      0.05753224065669
  C   -3.85172661857884      0.95468325595372     -0.10073804460036
  C   -4.09375733365057     -0.39746033021125     -0.39228147667079
  C   -2.89628471382866     -1.11079384928414     -0.38009207415193
  C   -1.83458101561410     -0.19970667308793     -0.10359846706338
  C   1.73806363298501      1.03566470778713      0.04321741775515
  H   3.55592262619229     -1.83526175320783     -0.25656181905430
  H   1.66953465401040     -3.08204996647895      0.10616112255889
  H   -1.61524339428972     -2.45735429174949      0.77034876697584
  H   -0.29085094581693     -3.53413953349784      0.75694531819711
  H   0.26591519153784      3.01922984339113      0.42721491850795
  H   -2.16860605274533      3.20499454338729      0.42983991025050
  H   -4.58893527902065      1.73937035976540     -0.03658147244792
  H   -5.06070871367557     -0.82676057270035     -0.60917167240917
  H   -2.81434827503945     -2.13907087665402     -0.68779063776454
  H   2.07322579900847      2.06349834833241      0.09055831026223
