26
Coordinates from ORCA-job ./opt_b97-3c_parallel
  N   -5.71320427265945     -1.62600308951560      0.00183689390399
  C   -4.65710852668809     -1.14344839488117      0.00144763523575
  C   -3.36524547992377     -0.55397295795517      0.00096516174937
  C   -3.30583977873398      0.83989911400009     -0.00004631974770
  C   -2.19513598646110      1.65812780722958     -0.00072252912379
  C   -0.81492825753639      1.40246974978002     -0.00061135019983
  C   0.02064477180591      2.53613248020747     -0.00155985738529
  C   1.39649678293986      2.45435117756270     -0.00151828854754
  C   2.01653607032144      1.21214253398072     -0.00049388905033
  C   3.35807248401060      0.84038280179914     -0.00016193979179
  C   3.40299822006326     -0.57659149579790      0.00103142300681
  C   4.57614687914892     -1.35332622188848      0.00171319320140
  N   5.54590212275260     -1.99294402142974      0.00227699103692
  C   2.09630973731976     -1.08764613691462      0.00144063544825
  C   1.20261802279798      0.00302163652190      0.00051013986256
  C   -0.20133961792155      0.06550341780300      0.00044064642794
  C   -0.92708555486109     -1.14219077335629      0.00132916720107
  C   -2.26986796073022     -1.42995782167425      0.00155617855971
  H   -4.26015293534631      1.34928140091257     -0.00035959344437
  H   -2.43764991130339      2.71413127694831     -0.00149857347093
  H   -0.44851350207606      3.50996213610252     -0.00233721024790
  H   1.98861909415206      3.36076272320519     -0.00227903819525
  H   4.21377628610940      1.49474837969365     -0.00070325437119
  H   1.86103865205107     -2.13858027548829      0.00232905569591
  H   -0.30203181660222     -2.02457680946502      0.00195619151967
  H   -2.51964720542925     -2.48255715248034      0.00231242412659
