28
Coordinates from ORCA-job ./opt_b97-3c_parallel
  N   3.97249306634088      2.07303677221064      0.39931299727940
  C   3.21663766515550      1.19793660240270      0.28892146154501
  C   2.31912283603725      0.10071074105021      0.15333666425267
  C   2.95737144722953     -1.12734312551919      0.28303809027430
  C   2.44164903579138     -2.40023772962550      0.12868415724682
  C   1.13879036277935     -2.74097690994363     -0.15992855174223
  C   -0.00710918748458     -1.94143416201523     -0.23770655190524
  C   -1.13479496714542     -2.71549114085028     -0.63476914726883
  N   -1.96764550534682     -3.43789077040861     -1.00030416736731
  C   -0.18234871732535     -0.54170969300811     -0.01449785012813
  C   0.93783132354409      0.43200028367809     -0.05675318631460
  C   0.64492998953230      1.77245358393393     -0.24194602826170
  C   -0.65669182987973      2.29780917469117     -0.24901752381336
  N   -0.84162169449119      3.61622380085774     -0.48167631039004
  C   -1.72000634164472      1.42526969266599     -0.00102183906137
  C   -3.08401883371059      1.64274548523269      0.17556550086626
  C   -3.68900458624577      0.39646315829162      0.45120455952370
  C   -2.72747781346699     -0.59717619299816      0.42373491387723
  C   -1.46276719682550      0.00290728346184      0.13800109700793
  H   4.01755213110603     -1.06880793858482      0.49112324377247
  H   3.14640994759238     -3.21713221243422      0.20539798031485
  H   0.96103613258790     -3.79265866657454     -0.34125184294972
  H   1.46340199686002      2.47030864603614     -0.33868172557677
  H   -0.05460884123126      4.23908600884328     -0.47557606921249
  H   -1.73884672956904      4.03232273500410     -0.31682753613220
  H   -3.60381960980086      2.58781292016866      0.12369638566196
  H   -4.73615405874325      0.24433316906835      0.66054800404077
  H   -2.91347395164548     -1.63433765843490      0.63058970226062
