28
Coordinates from ORCA-job ./opt_b97-3c_parallel
  N   -5.02826832782797     -0.98841323054749      0.42470853431963
  C   -4.05193467140900     -0.38245507854006      0.25051526558292
  C   -2.83088702510814      0.31690612471690      0.06796720380307
  C   -2.97143100302294      1.65781905772643     -0.27979759882468
  C   -1.99875780852641      2.63124513153435     -0.34664644100298
  C   -0.64723015678082      2.47931038433621     -0.12031452703894
  C   0.15430101617556      1.34031941488237      0.04405445793663
  C   1.53581870720906      1.62916895620178      0.16406195134791
  C   2.50826385378205      0.65355478580122      0.15307501383907
  C   3.87625148033304      1.01116964170947      0.27508297868524
  N   4.99773711564554      1.29076195689228      0.37361157477614
  C   2.14022154353398     -0.68638638546601     -0.02981722069548
  C   2.89509234374724     -1.83790685667651     -0.17721472496390
  C   1.99754788964719     -2.90672000258772     -0.38050282159982
  C   0.68727606610391     -2.44979842290877     -0.31737634360875
  C   0.71494324251579     -1.03792189170853     -0.10293988868293
  C   -0.27645682921270     -0.05255826296893      0.02187437514391
  C   -1.64779157531368     -0.44921488993760      0.28077146477318
  N   -1.83339540205956     -1.70272156177125      0.72414713407484
  H   -3.98996284179102      1.97995031483210     -0.45110903243714
  H   -2.34061726458783      3.63564996504267     -0.55717516537138
  H   -0.08662426097644      3.40599201196394     -0.12839185904917
  H   1.83562688425734      2.66373143347496      0.23101623265790
  H   3.97125852581579     -1.89436917870130     -0.16049359698839
  H   2.28308704176156     -3.93027222008024     -0.57098014334507
  H   -0.17303963568976     -3.05730908548665     -0.53997865461835
  H   -2.74579546825226     -2.01414720384693      1.01111876249054
  H   -1.03708721556929     -2.24122753568657      1.02295600879612
