26
Coordinates from ORCA-job ./opt_b97-3c_parallel
  N   -5.15855295549596      1.85748291179078     -0.00140561490630
  C   -4.15150101890725      1.27737194164244     -0.00077381769807
  C   -2.97266269684697      0.49070004442468     -0.00037205672728
  C   -1.76306865661523      1.18770319254274     -0.00037607918260
  C   -0.43726238103899      0.77949640900802     -0.00009072532330
  C   0.54018258643764      1.82540168924762     -0.00013776840502
  N   1.84258404083318      1.66485009027182      0.00018901425716
  C   2.28133800392288      0.39336128773594      0.00055988547420
  C   3.57805155062878     -0.13339525853513      0.00105021906648
  C   4.79871288962743      0.55072084399092      0.00133196831457
  N   5.82561122829393      1.09550308685710      0.00173437202461
  C   3.39322592990719     -1.55059027914597      0.00126474917437
  N   2.11369936243305     -1.92647175237857      0.00100918737805
  C   1.40377033736742     -0.76200135650327      0.00059908231447
  C   0.02651148088104     -0.58825431047189      0.00030015430060
  C   -0.79627061281497     -1.74223130752489      0.00047413249834
  C   -2.14540042484353     -1.89217352072653      0.00035938351490
  C   -3.17642766304617     -0.91444719540115     -0.00001103555925
  N   -4.43675840009887     -1.37707266516248     -0.00000420271563
  H   -1.89361189784804      2.26344052575647     -0.00065038634205
  H   0.18181568970147      2.84980611413585     -0.00042008783722
  H   4.18861164732918     -2.28126676740339      0.00166453746641
  H   -0.22288015227983     -2.66149241622774      0.00079239305581
  H   -2.49963414523614     -2.91653417194507      0.00059241322315
  H   -5.22662181917809     -0.75377384563536     -0.00028326439158
  H   -4.62301046501314     -2.36254146404294      0.00023221012513
