26
Coordinates from ORCA-job ./opt_b97-3c_parallel
  N   -5.15834969366057     -0.65676494877156      0.49590066431839
  C   -4.07228687041848     -0.28069487334468      0.32900236305439
  C   -2.74746027051975      0.18516134686533      0.11605892597912
  C   -2.59450548871443      1.56514417896100     -0.10211129429421
  C   -1.45017037217278      2.29374223717889     -0.23675659258996
  C   -0.09315616921687      1.90020257335322     -0.13932061756057
  N   0.80970758054381      2.87682708065362     -0.15714456864335
  C   0.43035690581847      0.55074778035041     -0.04971069688880
  C   -0.36256136746045     -0.66579892571853     -0.06567064274703
  C   -1.73935628141211     -0.77221436278688      0.10894180958250
  C   0.35563379268918     -1.93023879860411     -0.16156063415223
  N   -0.34803877369220     -3.10043542114460     -0.35337970097898
  N   1.66280948148612     -2.07376230562121     -0.03320007282820
  C   2.37452776594371     -0.95551835754183      0.11491200865507
  N   3.70687822753623     -0.85770886947631      0.24887351267017
  C   3.91181643575104      0.47752241175976      0.24780749867289
  N   2.83076595733276      1.26864752728812      0.12551046210251
  C   1.80036090096821      0.36872244620803      0.05049368730869
  H   -3.51595016500450      2.13129776620866     -0.14895655506312
  H   -1.59511950719009      3.35820430569561     -0.37919842071219
  H   1.81549811739822      2.63314354939670     -0.05865241954465
  H   0.51340982732541      3.83587431481962     -0.20583297708522
  H   -2.09232319273247     -1.77835645726284      0.28616734692137
  H   -1.08000415473714     -3.09152970533048     -1.04248994403298
  H   0.27095935443687     -3.88926792541782     -0.45352336270200
  H   4.90298900250160      0.89637884288161      0.33911446115843
