30
Coordinates from ORCA-job ./opt_b97-3c_parallel
  N   5.50613803835517     -1.86697099928753     -0.00470446484638
  C   4.47910260199544     -1.32099365099252      0.00241611493957
  C   3.26943389808701     -0.58761370456729      0.00786604810640
  C   2.09668885457335     -1.31538054629197      0.00137222436433
  C   0.74634776155490     -0.95459002946308     -0.00097844406693
  C   -0.13688936556745     -2.07370505421000     -0.00704474115012
  N   -1.45074273329448     -2.03713207503696     -0.00976684144564
  C   -1.98998249328186     -0.81215469605287     -0.00424207971335
  C   -3.33507884195016     -0.42206745306569     -0.00497719227291
  C   -4.49723586178525     -1.19272758757274      0.00650346974749
  N   -5.51289803709248     -1.76136787186047      0.02252142801848
  C   -3.30501262674565      1.00823400783353      0.00842048540567
  N   -4.38682352304094      1.80823537628354     -0.02495786523735
  N   -2.05392168720655      1.50015432593165      0.01561922597888
  C   -1.21723271405709      0.41737028087490      0.00632334460371
  C   0.17571282931554      0.37078591923057      0.00701425264453
  C   0.95180154634331      1.60115338474980      0.00661196054994
  N   0.24247282409443      2.73687275959085      0.00383942739299
  C   2.34348979269236      1.74757679455246      0.00977954592543
  C   3.39231610745211      0.84011351185613      0.01446513534748
  N   4.64960780905407      1.34039329924984      0.04228210556430
  H   2.25729738026580     -2.38623836051531     -0.00564497626569
  H   0.30892448311031     -3.06256254911880     -0.01109907501198
  H   -5.28855433892280      1.40795945747581      0.16418025412608
  H   -4.26316563493462      2.78024084244207      0.19308534949396
  H   0.70985962062852      3.62495343950918      0.00180377095184
  H   -0.78510540244792      2.68478945858947      0.00340105227063
  H   2.66490258855629      2.78399697345562      0.01591475722425
  H   5.44865760244407      0.73544777411838     -0.02701163039771
  H   4.80979881080451      2.32626498999138     -0.03654867464787
