26
Coordinates from ORCA-job ./opt_b97-3c_parallel
  N   4.37661767960295      1.47223284878712     -0.28088904370447
  C   3.17614087933180      0.95820312821075      0.03376674861778
  N   3.20507703836944     -0.34779361982366      0.33848685677676
  C   2.15100282553086     -1.14808188296867      0.33876432561488
  C   0.80005695138850     -0.94942494144260      0.05396264714060
  C   -0.03683729225533     -2.10164907134014     -0.05554061569381
  N   0.52970722082452     -3.37120613751413     -0.09621407903938
  C   -1.42520768071168     -1.98841673981756     -0.07756236745897
  C   -2.02046817711319     -0.74038836140281     -0.01343673455480
  N   -3.31506186270071     -0.39099121667399     -0.02373631905847
  C   -3.24621598138148      0.97016320590089      0.01234871985335
  N   -4.36603848621260      1.72072373757723     -0.02173489541141
  N   -2.01656212422849      1.53735909433095      0.04401468585226
  C   -1.20038027592329      0.46519949298474      0.02965280985924
  C   0.19616892764691      0.38258753014172      0.03065456575850
  C   0.90944906059591      1.59060968759322      0.08953880433720
  N   2.19094695596066      1.88261017553725      0.05390252278416
  H   5.19125326843740      0.88995070809883     -0.22101419867783
  H   4.46290457815744      2.46274914532076     -0.41480003713217
  H   2.41457102292811     -2.16182630096005      0.62504373492734
  H   -0.13752159548317     -4.10748117154062     -0.25432175534138
  H   1.32723473190995     -3.47470319108263     -0.69972165593261
  H   -2.04098616148633     -2.87500514413146     -0.16912177260003
  H   -5.23268540526960      1.25913236548113      0.18565766407259
  H   -4.28077111732704      2.68688115927817      0.23598586385080
  H   0.26830587720860      2.46433207555560      0.15067357965979
