32
Coordinates from ORCA-job ./opt_b97-3c_parallel
  N   5.17542648457947      0.42690979549457     -1.18149073232373
  C   4.11011537605796      0.18295500104544     -0.77297681361495
  C   2.83557987116350     -0.12620472335355     -0.27122003136021
  C   2.56420035193113     -1.50018123770011     -0.01717426090076
  N   3.61020293410396     -2.36297799866588     -0.15434243214707
  C   1.35835812147288     -2.06610817318727      0.38642824074842
  C   0.06115853032799     -1.55734460092191      0.42636402904609
  N   -0.88581076468227     -2.51436523105272      0.64644906094119
  C   -2.16529665996291     -2.22574536265293      0.49518871570274
  C   -2.59399272060106     -0.97589638013843      0.09963366318120
  C   -3.84302754936268     -0.42212964947476     -0.29348439019368
  N   -5.02847524401115     -1.04621026112569     -0.37575827594922
  N   -3.73161810309136      0.87236286923607     -0.65435955264364
  C   -2.44084502692304      1.21472750487966     -0.48029116817471
  N   -2.04045314526955      2.43784371074224     -0.84238406543187
  C   -1.64069148318337      0.08436202928513     -0.00834230401056
  C   -0.29565729885047     -0.15272227110484      0.25085671684612
  C   0.65187030297337      0.91516393385671      0.47585903467796
  C   0.15043096973104      2.08401936696179      1.05211533827968
  N   -0.24930516728191      3.08863555658946      1.49954513500347
  C   2.02476277093009      0.96844528440994      0.12389120894621
  N   2.62138791719742      2.18211559009265      0.13782981224897
  H   4.47093872331740     -2.04917391804767     -0.56700702812679
  H   3.41764217394580     -3.34459164752021     -0.22327702937606
  H   1.38720968863687     -3.13010105139750      0.58254341227896
  H   -2.86000379565706     -3.03968905333656      0.68534100954229
  H   -5.84280159023219     -0.48341892434035     -0.54740469947694
  H   -5.16560643824164     -1.93553283277291      0.06600067792817
  H   -2.78633294115329      3.05880801828861     -1.11300423097909
  H   -1.26619406068411      2.87372407926293     -0.36314168392167
  H   3.61947082489829      2.26040278197724      0.06270748323449
  H   2.11307045942089      2.99814791387088      0.42645705762488
