27
Coordinates from ORCA-job ./opt_b97-3c_parallel
  N   5.35662543926832      0.30347673467398     -0.41007209041392
  C   4.20165400382569      0.41470601373753     -0.33403895046610
  C   2.79770692014308      0.48146729548788     -0.19589882886651
  C   2.17517908882991      1.67941542263117     -0.56547339155291
  N   1.00452034602036      2.13807444479296     -0.20949337208968
  C   0.02604785026185      1.47291926970189      0.38732261399194
  N   -0.75305236911353      2.17110227362066      1.20372964339090
  C   -0.28997605688015      0.07308463211744      0.13796609318475
  C   0.72787703421441     -0.92620686890077      0.16596864809396
  C   0.32551034955983     -2.27846668655308      0.02576323652274
  N   -0.91407500202708     -2.70324387184199     -0.12205109395090
  C   -1.87190130804719     -1.78000922609841     -0.14876395018406
  N   -3.18970990363521     -2.03969656729901     -0.28232921501223
  C   -3.78380854723264     -0.84161067407643     -0.30087146575106
  C   -2.89002865638897      0.24843195581113     -0.16218076223589
  C   -3.23626648589712      1.59947805957147     -0.21965198156231
  N   -3.50233955340514      2.73427826179781     -0.23629126366279
  C   -1.60410296243264     -0.34887444478022     -0.04926178202644
  C   2.13856112117418     -0.67181108674688      0.31278246835448
  N   2.90438440988696     -1.64320160742496      0.82405475346331
  H   2.77765686658797      2.37438423330158     -1.14035196751475
  H   -1.59565464894309      1.77261418170568      1.57828141515524
  H   -0.68430053891140      3.17580313317547      1.19891825455661
  H   1.08422244874240     -3.04742627043311     -0.05786164792867
  H   -4.85253149254532     -0.75139855376875     -0.42758763278214
  H   2.50045133444658     -2.46685222630453      1.22736017471381
  H   3.90804301669997     -1.56744125599896      0.82075438038197
