25
Coordinates from ORCA-job ./opt_b97-3c_parallel
  N   4.83202908920919      2.74260097757499      0.00122946107830
  C   3.94805242853968      1.99206292949494      0.00056055558555
  C   2.85077256382951      1.08226643223737      0.00026885130321
  C   3.17218986454753     -0.26110028591226     -0.00006614245136
  C   2.29884637468895     -1.36862028112196     -0.00031382274423
  C   2.93438183694744     -2.64528566628751     -0.00055247510317
  N   3.46303376271217     -3.67714469365105     -0.00039642076751
  C   0.91624961351098     -1.37261318457400     -0.00033795754040
  C   -0.00543857697899     -0.31082426023963     -0.00009171947163
  C   0.30934279942646      1.11860352775459      0.00023353329318
  C   -0.78072663744883      2.04854781869544      0.00042179194407
  N   -2.05716419604246      1.74301936672897      0.00032832459512
  C   -2.35527274898262      0.43476735878885      0.00002851578263
  C   -3.59055761720938     -0.22300766766248     -0.00013898046065
  C   -4.87380817395424      0.33353855627534     -0.00000917308409
  N   -5.94970999840630      0.77279966926812      0.00037915721550
  C   -3.25929648499865     -1.61495896338120     -0.00046040888161
  N   -1.94738725257087     -1.85008380553020     -0.00047999032952
  C   -1.36107744670344     -0.62074097010663     -0.00018577340321
  C   1.56964873136714      1.67797313140433      0.00037531066503
  H   4.22701125063192     -0.49777290829751     -0.00011999113386
  H   0.44407826984922     -2.34721276001025     -0.00057398776051
  H   -0.53883706664011      3.10550932492735      0.00066488939472
  H   -3.97169264167639     -2.42604944921611     -0.00066270508074
  H   1.58803810165208      2.76075248504048      0.00062073345520
