34
Coordinates from ORCA-job ./opt_b97-3c_parallel
  N   5.58193004084752      0.65990030723930     -0.17936480886784
  C   4.45605209958039      0.36462690016935     -0.11673351384338
  C   3.09569633609441      0.02396699359170     -0.04261311712403
  C   2.74157348798197     -1.30378854844241     -0.43428194342990
  N   3.57125696663237     -1.97593939795956     -1.25310109679618
  N   1.72699958781358     -1.99766311843257      0.04620096070153
  C   0.63063136106277     -1.53226619541617      0.59977021189114
  N   0.02501351316811     -2.32747963434167      1.48522431998730
  C   -0.00860549361640     -0.26025307904675      0.28285810068420
  C   0.75516006013818      0.95323863338065      0.27387398102189
  C   0.07430646537390      2.17184351180876      0.12669430967237
  C   -1.30337440586391      2.24219209195513     -0.02972633469814
  C   -1.92808045118664      3.49981080701346     -0.20682769632325
  N   -2.45665347403776      4.52428079154374     -0.34720341637038
  C   -2.07007115071392      1.06562584919535     -0.05911634222288
  C   -3.42988861936354      0.84866190067496     -0.24349366775100
  C   -3.64265210229039     -0.53934184273464     -0.25407534858133
  N   -4.83576052536710     -1.17168987254975     -0.39680098523992
  C   -2.39998671361609     -1.21494160390996     -0.05033506818091
  C   -2.27983585268717     -2.59463367999168     -0.17457301410186
  N   -2.22768306103299     -3.75770402716324     -0.27074154025026
  C   -1.38783797619695     -0.21402958389608      0.08472378604557
  C   2.19113540893387      1.01270750472745      0.40313341058150
  N   2.72329916414313      2.16478883591304      0.85701099351226
  H   3.45138125685313     -2.96935604582426     -1.33702467098593
  H   4.43938117414131     -1.57331077432653     -1.55688631127577
  H   -0.90114257712072     -2.09981582787703      1.80131258929060
  H   0.28991556990209     -3.29790535178107      1.51765527424565
  H   0.62867377477236      3.09218217248874      0.03513843575318
  H   -4.18445746732173      1.60854994609544     -0.36583896274266
  H   -4.81794246218886     -2.15298669766180     -0.61891027604829
  H   -5.58617340224950     -0.65964305271758     -0.82460336536664
  H   3.71932460498536      2.29046311876977      0.90237114822337
  H   2.15119218092960      2.83595433240604      1.33091377788987
