27
Coordinates from ORCA-job ./opt_b97-3c_parallel
  N   1.72765289198268     -3.38722445646485      0.45676154625485
  C   1.96084855987785     -2.24823758599860      0.35619588629946
  C   2.20934604961153     -0.88354968894421      0.20265779299633
  C   3.47995809835802     -0.27569741817607      0.35988835170254
  C   3.37074396649781      1.10769188964428      0.28114781576021
  C   2.01827090816170      1.42041776470963      0.10209546660782
  N   1.45783404090273      2.63377385889947     -0.01625404573269
  C   0.15015665037789      2.67458036472914     -0.14611817188743
  C   -0.71035939041116      1.54551053209964     -0.19951506588825
  C   -2.09671593822349      1.81994535422754     -0.20131460186071
  C   -3.16460330007025      1.00170168256771      0.01222598136416
  C   -3.09799210898595     -0.40229094753396      0.21942448161421
  N   -4.17915191620022     -1.01022742795676      0.76464095872124
  N   -2.13371318479664     -1.21474961641645     -0.16739878864650
  C   -0.91027598777852     -0.92069449631980     -0.56367073181347
  N   -0.33159999363231     -1.81664536224718     -1.36519615650648
  C   -0.11454383456266      0.24804313154687     -0.18972480885234
  C   1.25682459210394      0.16925049233806      0.03041742938211
  H   4.38753210294169     -0.83112504073047      0.53775337030568
  H   4.16985228874398      1.82519765577881      0.36343487162006
  H   -0.30178352748360      3.66045486984440     -0.19301086077419
  H   -2.33813389191652      2.87277932330442     -0.29890436972695
  H   -4.14392618994886      1.45748890903277      0.08422970124649
  H   -4.85707497598150     -0.47402720980780      1.27243814928455
  H   -4.10742024624721     -1.99034642248532      0.97366740723538
  H   0.64739158893967     -1.74759948601913     -1.57731544478407
  H   -0.75884415026071     -2.72215263772218     -1.45926095352195
