28
Coordinates from ORCA-job ./opt_b97-3c_parallel
  N   2.72678056216661     -2.96303175370924     -0.24073763157434
  C   2.40007046381150     -1.84457948345015     -0.16900228687683
  C   2.07796770099760     -0.49461343804357     -0.07339245469394
  C   3.05744250445819      0.54955077373488     -0.03341497112721
  N   4.39557245796683      0.37380424302717     -0.14180683940109
  N   2.51353777676141      1.77170214770802      0.06953760654240
  C   1.17565755127006      1.56525460749418      0.08338674378306
  C   0.17534776802341      2.51007367655927      0.22428336085981
  C   -1.14861073705742      2.11031765451122      0.19215211687664
  C   -1.55352130210743      0.77092681215008      0.06911142992086
  C   -2.95119059306028      0.52384069810568     -0.11482317556011
  N   -3.75288527956836      1.59983959099853     -0.37389445043077
  C   -3.65115914870014     -0.69287493737217      0.00463868272766
  C   -3.18751666292993     -1.96669492286557      0.20652063167952
  C   -1.87059399789840     -2.41085421397883      0.26164615731187
  C   -0.72850079376811     -1.65703859634755      0.14372275892239
  C   -0.52060047519354     -0.26938025686402      0.04805668027685
  C   0.82570979601551      0.16628316835008     -0.00376709731489
  H   4.96677697037987      1.15540776243874      0.12708502224819
  H   4.77169169467100     -0.53738529679053      0.05255596165439
  H   0.43323189270393      3.55215141366674      0.35518619580044
  H   -1.89291005130218      2.87751039181269      0.34091296693581
  H   -4.70745648330405      1.41974171453249     -0.62596589721988
  H   -3.35043683985788      2.40572267968700     -0.81491566417555
  H   -4.72790746375184     -0.60343483888664     -0.08863116118985
  H   -3.95150865335933     -2.73110401697567      0.28694851450234
  H   -1.72583767130926     -3.47660484122281      0.38051177378228
  H   0.18117940004166     -2.23910895686992      0.16255422364004
