30
Coordinates from ORCA-job ./opt_b97-3c_parallel
  N   5.00896005461123     -1.83039575142914     -0.70529811776006
  C   4.08557172242789     -1.15716451451765     -0.48202054484374
  C   2.93042959599436     -0.40999477369294     -0.23360759620413
  C   2.84300626063882      0.93743404436496      0.14067759482722
  C   1.49783746594778      1.28995780120874      0.23512243126594
  C   0.89405623994275      2.53204086497070      0.48006647809369
  N   1.60719610902361      3.61903138618124      0.87320217609641
  C   -0.48448105603106      2.64263391975743      0.25804054302262
  C   -1.27764537738099      1.57351473491920     -0.12189040408789
  N   -2.49329144218568      1.89057372129318     -0.61708180000730
  C   -3.48421089941746      1.09193909144172     -0.91891351102954
  N   -3.79377167231723     -0.16000892182287     -0.59668226199677
  C   -2.97497822186891     -1.01232441267246      0.00787436456829
  N   -3.58647432604405     -2.13451015421918      0.43608935895608
  C   -1.55110360756227     -0.91008976317295      0.20137857984121
  C   -0.98171236422897     -2.01780266655033      0.84239028075734
  N   -0.56057319733021     -2.97300761605101      1.36502751421936
  C   -0.71129270788960      0.20758020583377     -0.04971970187011
  C   0.68547038564457      0.12735682648104     -0.05173487008461
  C   1.61102221466151     -0.94048871727172     -0.35259510284802
  N   1.37436701290879     -2.17474131794271     -0.83518080550580
  H   3.70024687050005      1.56881174358543      0.31346817675043
  H   1.18654090518636      4.52620657852085      0.78382019971920
  H   2.60745029243004      3.60376239063708      0.79782116962483
  H   -0.95895233173113      3.61425702538007      0.26850329458200
  H   -4.26329637245598      1.57474413346596     -1.50366016794786
  H   -3.10049981911616     -2.88309590162514      0.89485939421584
  H   -4.57225642916477     -2.21261882939343      0.26551739838604
  H   0.56818810260468     -2.68938233961413     -0.52167207074525
  H   2.18746200620184     -2.75050941056614     -0.99077513539544
