29
Coordinates from ORCA-job ./opt_b97-3c_parallel
  N   -4.45254303677806     -1.26903679528549     -0.18374219045777
  C   -3.50904375848538     -0.59360669852407     -0.14220497780142
  C   -2.42399545789959      0.32841529549696     -0.11686634188287
  C   -2.76968721337812      1.63403201030906     -0.43421359849797
  C   -1.99924525321254      2.78572083431041     -0.40206094373952
  C   -0.68717083435025      2.88685050524897      0.00672833771599
  C   0.23943896463400      1.87846728519880      0.27957496983579
  C   1.41864679796328      2.34799287753284      0.89151772747756
  N   2.39696097629350      2.74483525003662      1.38537657401587
  C   0.14245769486750      0.45622974587374      0.05764362664872
  C   -1.13744370602897     -0.25882996100207      0.14689306260244
  N   -1.19724158467840     -1.55509565832096      0.40757456451123
  C   -0.08924633879220     -2.31810749655997      0.42751994566470
  N   -0.28770845640192     -3.60244863457125      0.80417162290654
  C   1.14344390872044     -1.79112061111320      0.06029945199616
  C   2.38145386094315     -2.37603727087168     -0.24085429966699
  C   3.26885957926743     -1.37567038562539     -0.61893032413555
  C   2.62930221620355     -0.12531244201538     -0.53839203235129
  N   3.19164007510994      1.03397773548565     -0.96707651427765
  C   1.25641974108923     -0.35934826128936     -0.11190146933726
  H   -3.81013460236864      1.77211577145603     -0.69818881148305
  H   -2.50756290594571      3.71169857704949     -0.63300962335152
  H   -0.31357679306695      3.89272818330835      0.15385609349992
  H   -1.23905900396187     -3.92752823555490      0.80617747345370
  H   0.43153762956205     -4.28546349678959      0.65855655904478
  H   2.61980777705104     -3.42820341950504     -0.19770083440343
  H   4.29119495919079     -1.51945002119241     -0.93282018192312
  H   3.00438547470105      1.88244735024695     -0.45277242037311
  H   4.15772548455172      0.95752541216694     -1.24053378559091
