30
Coordinates from ORCA-job ./opt_b97-3c_parallel
  N   -2.36867124137839     -3.69074364363908      0.10592420559882
  C   -1.85396485572297     -2.64587069909842      0.08519068231640
  C   -1.32725368935556     -1.34203834107610      0.06325936958103
  C   -2.26762272011665     -0.28261407297249      0.14252599752490
  N   -3.58152914255191     -0.54838017980285      0.31634912460108
  C   -1.77872133875255      1.02294201212809      0.07022543635651
  C   -2.38457203614505      2.27945141405186      0.05637516778050
  N   -1.47661839681559      3.26886308564030     -0.10721011137872
  C   -0.26876780207140      2.67804912693252     -0.18526428922260
  N   0.85830742840363      3.45400249609256     -0.35557396674053
  C   -0.36365430578083      1.26119275663787     -0.06359379027263
  C   0.59453009404599      0.23501490863443     -0.01057002646943
  C   1.94509368786606      0.58538524514228      0.15708423149814
  C   3.13545520123427     -0.13296106141724      0.12326783554258
  N   4.30395584294886      0.58291497986746      0.30563561700101
  C   3.27614698277623     -1.50299898538618     -0.15402339268220
  C   2.26131146233179     -2.41584984188762     -0.30311060002531
  C   0.88350912406840     -2.26696371297319     -0.22117871352226
  C   0.08019755628801     -1.13636723700062     -0.04701933133843
  H   -4.24983597463546      0.18552276123317      0.17801267240508
  H   -3.91764310113297     -1.48912836974391      0.20175338997157
  H   -3.43340630601065      2.52234599381682      0.14710607302826
  H   0.61034940333506      4.39936055137141     -0.60939030330372
  H   1.54697525317326      3.06895018557336     -0.98482213550486
  H   2.08445462185013      1.63302564097195      0.38987073510176
  H   5.10493259723243      0.06075666283210      0.61526540457412
  H   4.21833801254273      1.47396850955633      0.76345621584007
  H   4.28880551797090     -1.87953128961910     -0.23649558504710
  H   2.58632152521505     -3.43314181581070     -0.48816894960654
  H   0.33849145188731     -3.19666262565515     -0.31875549370762
