30
Coordinates from ORCA-job ./opt_b97-3c_parallel
  N   -3.90598988753062     -2.49352137744088      0.53012429986919
  C   -3.08162810057237     -1.68850428507688      0.35710183630424
  C   -2.14482630615065     -0.66111875781916      0.12704167103635
  C   -2.71815202192993      0.53946911458423     -0.39558472143607
  N   -3.98898423990847      0.47760163214706     -0.85312660951278
  N   -2.19814843680774      1.75708857994478     -0.49139140781527
  C   -1.01765678285488      2.15099820758545     -0.03946608368284
  N   -0.90858736073613      3.49634114812632      0.04759444902365
  C   0.13352194651457      1.37144455835022      0.29202520112273
  C   1.18005012175110      2.09744819465916      0.86376681600190
  N   2.03338155921517      2.75717552917822      1.31537170237121
  C   0.32806852631843     -0.03654667557212      0.10443494341862
  C   -0.76410796663112     -0.99790005836739      0.23268005633255
  C   -0.44034316542986     -2.34707882583311      0.47747787460291
  C   0.84836997021024     -2.83238113513199      0.42839895415367
  C   1.87427753964945     -1.96361484185635      0.10967729129154
  C   3.23502942896602     -2.15885234792498     -0.21179184000008
  N   3.83791822617436     -1.03317726624893     -0.59354987762515
  C   2.89937765718029     -0.04562855432247     -0.50281122139415
  N   3.23798596441447      1.17125201744425     -0.92768409905497
  C   1.61350138431874     -0.57017591368975     -0.05842721530036
  H   -4.44505325860593      1.34602786276637     -1.06311687904778
  H   -4.54243747414581     -0.35536596408816     -0.76705743104790
  H   -0.10293171828274      3.94117539881135      0.44774681622505
  H   -1.74460342762327      4.03335961044845     -0.08970742689215
  H   -1.24719644430172     -3.03836018423788      0.66695476961745
  H   1.03527394837694     -3.88668875903314      0.58443009054885
  H   3.77851157536268     -3.09279822493504     -0.18498184371680
  H   4.20644267639305      1.26959327401041     -1.18951388880219
  H   2.79238187616617      1.99524379682205     -0.55423449629107
