27
Coordinates from ORCA-job ./opt_b97-3c_parallel
  N   -4.53392470269731      2.49443848626801     -0.49306730978600
  C   -3.58293748117852      1.84846149915367     -0.33604564928292
  C   -2.41444288398359      1.05919774173442     -0.14527666266488
  C   -2.59197773856075     -0.32247464706822     -0.13350879910673
  C   -1.65909130597549     -1.31272093719839      0.10564230895349
  C   -2.19624924425306     -2.62325195436591      0.20956995662622
  N   -2.58753683939271     -3.71177493453932      0.31677146430164
  C   -0.23676133503217     -1.21618470507642      0.26839095654791
  N   0.38291589006419     -2.35342797124094      0.60639870113893
  C   0.59540096274635     -0.05910468382940      0.05978043340028
  C   0.10050517747884      1.31152635339307      0.15729042816749
  C   1.03406277943086      2.37518376319676      0.29584683462676
  C   2.39088938346342      2.19676593153552      0.25648618513374
  C   2.89156468890537      0.92096307828950      0.02470721355304
  N   4.17282467958743      0.56921992616202     -0.12764264267171
  C   4.14024513709307     -0.76877195752736     -0.37427366717114
  C   2.86173777928150     -1.31336914004397     -0.34561837035162
  C   1.98253487386099     -0.22563624151556     -0.09218597024653
  C   -1.22210663546874      1.74472446095186      0.05972758861306
  H   -3.60664420072284     -0.66856610224314     -0.27284562587395
  H   -0.14061837770356     -3.18540704700168      0.82018236634899
  H   1.35613510848660     -2.32889671749568      0.86271506531664
  H   0.63621019781479      3.37430610110707      0.40043587751189
  H   3.07201419094292      3.03025700717620      0.35916442550628
  H   5.05672014840782     -1.30273102872415     -0.58061845228545
  H   2.62513556425584     -2.32929169142872     -0.61297146952900
  H   -1.33788851165231      2.81946252903171      0.10413173472399
