33
Coordinates from ORCA-job ./opt_b97-3c_parallel
  N   5.66959531524810     -0.61018533203792     -0.73061360978829
  C   4.54848267529260     -0.39382099897375     -0.50096979596828
  C   3.20647719775988     -0.06081838139430     -0.22301782295997
  C   2.35149857873596     -1.09762500883645      0.10451993263228
  C   0.98136284552834     -1.12441420725969      0.35427701174528
  C   0.55241045039730     -2.33373090739757      0.92967322328908
  N   0.20190144174675     -3.34447437953456      1.39589674750135
  C   -0.01250316395275     -0.09323802716936      0.13853918246696
  C   0.33315756525899      1.32102132258857      0.22483750816686
  C   1.63808617541194      1.86367416598181      0.15462222258269
  C   2.87898183243969      1.33463706540738     -0.14313842814669
  N   3.90121357536090      2.20833659009248     -0.38025856330229
  C   -0.70204584924421      2.26084880996214      0.34360221399571
  C   -2.05223391925922      1.94484981891243      0.25023440198441
  N   -3.02684802710619      2.92599523651259      0.33819474379014
  C   -2.38285144150741      0.60897666578081      0.05078309852180
  C   -3.60501604293328     -0.05016769857961     -0.19820021336291
  N   -4.85825158246825      0.48308771791395     -0.14419763802819
  N   -3.42859501488864     -1.34078131548825     -0.54318221362924
  C   -2.10706056873496     -1.58481396563802     -0.46745842228156
  N   -1.65049946575909     -2.77454700228886     -0.88059375116477
  C   -1.35872953938235     -0.39020264375099     -0.05853261986786
  H   2.83726232575572     -2.06013726812586      0.20407202465408
  H   1.64368753205232      2.94618440150782      0.22231784462773
  H   4.84857669058986      1.87155661296002     -0.36422524128119
  H   3.77752105503152      3.17112248870748     -0.12725939245186
  H   -0.42649030839588      3.30312529195573      0.44563337383650
  H   -2.67034220135086      3.86619238018226      0.27878332691410
  H   -3.80169007297773      2.79854767503933     -0.29456878330903
  H   -5.01472505316747      1.17334995115528      0.57243504779965
  H   -5.59168050072353     -0.20593472812125     -0.20318429262696
  H   -0.83218417765372     -3.17577582773454     -0.44715705799014
  H   -2.37737581028901     -3.43509400943341     -1.10607857014222
