27
Coordinates from ORCA-job ./opt_b97-3c_parallel
  N   5.53589290583353     -1.08742652273907      0.49111508973211
  C   4.50109906095445     -0.58958889055777      0.31986375860729
  C   3.24172244212409      0.02946363873664      0.09831134670451
  C   3.26666593964186      1.39410035824341     -0.25087130308657
  N   2.27251712014069      2.25365866387321     -0.26331098801084
  C   0.98657721736388      2.01618160035353     -0.05170136515668
  C   0.20506492126746      0.84821119988943     -0.05120570804884
  C   0.76458577531962     -0.51466519073654     -0.05615941545948
  C   2.11519112897425     -0.79044888705914      0.15136463936394
  C   -0.11556429986290     -1.62855383709054     -0.14946146693962
  N   0.39406762196240     -2.91743004725774     -0.22754277974775
  C   -1.49761572566426     -1.44576760006939     -0.08969738711774
  C   -2.04118688260440     -0.18789518886356      0.01840622161045
  C   -3.38180118572581      0.24781309574502      0.07695779509046
  C   -4.50445704664466     -0.58548688666355      0.09189917347272
  N   -5.41898469731777     -1.30550114525940      0.10093919506566
  C   -3.35969813522351      1.66609143315023      0.09511252997232
  C   -2.04779624903297      2.11599853469865      0.04795592187687
  C   -1.18895857658749      0.99274670306014      0.01192050057354
  H   4.23659723976796      1.81380302198324     -0.49630983965096
  H   0.42072510304971      2.92975472140841      0.09085901159542
  H   2.33605058240580     -1.82560176523704      0.37709973332029
  H   -0.30713081282655     -3.63377371197574     -0.31421339868473
  H   1.13497107120986     -3.06047686391287     -0.89365933498433
  H   -2.15178113728784     -2.30877954645886     -0.13938935582898
  H   -4.23859031452682      2.28925509929497      0.13421824436341
  H   -1.75886233731013      3.15359435584510      0.02959704486535
