34
Coordinates from ORCA-job ./opt_b97-3c_parallel
  N   5.66815851257246      1.45184396015296      0.29000803740083
  C   4.59908280207430      0.98828771628185      0.21720855776917
  C   3.32091652376299      0.42143934817716      0.10868802717587
  C   3.23224579266096     -0.99074955152018      0.23771128977103
  N   4.39349469994741     -1.64661455033894      0.54788294624835
  C   2.10050513928235     -1.79022231638118      0.09477504211687
  C   0.73765434583517     -1.51335974136863     -0.05805288420366
  C   -0.12632398783234     -2.62756672306757     -0.16782797988278
  C   -1.49916983414594     -2.52102645030405     -0.23699912753999
  C   -2.08531352633320     -1.27171469370772     -0.15401322461859
  C   -3.43873860030960     -0.86355149167647     -0.09301894514645
  N   -4.53718943012442     -1.65394929230682     -0.13355138461683
  C   -3.46343053669861      0.54108772122766      0.11843918213961
  C   -4.60245982047714      1.32204978946499      0.29668222297335
  N   -5.55521293664959      1.97805665083688      0.44641892784844
  C   -2.12367043714986      1.00440101001603      0.17861061587138
  N   -1.78885554149676      2.30010820428923      0.41075699777414
  C   -1.24956153471729     -0.10485559583451     -0.03070995449501
  C   0.15442288291493     -0.17537198535396     -0.10463438565168
  C   0.89670069737062      1.00196375188843     -0.30759840427784
  C   2.25252778926037      1.29815778968777     -0.22505117683507
  N   2.59295449333909      2.61189146058466     -0.43179173654461
  H   4.42242911352525     -2.64034579763265      0.41482016431261
  H   5.27141961986896     -1.17186549004354      0.42586268744712
  H   2.31506371983006     -2.85080767402401      0.16963457307335
  H   0.32435632978647     -3.61050678015022     -0.19099660040402
  H   -2.09624409356557     -3.42167494436695     -0.31726522046314
  H   -4.45434985141129     -2.56898775841465     -0.53735279549607
  H   -5.43111318077403     -1.21216855886977     -0.26304800149409
  H   -0.88256681220084      2.46302961868438      0.82014172179947
  H   -2.51908675688162      2.88128857226404      0.79248283601135
  H   0.30309917848049      1.84476960453997     -0.63366076620878
  H   3.55289094813891      2.83382207732004     -0.63349964280981
  H   1.92189333891692      3.19472149094488     -0.89796059834491
