33
Coordinates from ORCA-job ./opt_b97-3c_parallel
  N   -5.80034155146201      2.10691576942084      1.15283869338302
  C   -4.82892033388596      1.53260087327551      0.87693997521154
  C   -3.66326405540766      0.82178272410926      0.54201204899665
  C   -3.62421200992636     -0.54558789039097      0.15367008285660
  C   -2.29440649134975     -0.89208881786426     -0.04058613798862
  C   -1.70199867388957     -2.12019431104677     -0.40034431247720
  N   -2.43129361136160     -3.19641075217973     -0.71642945690830
  C   -0.29035301328185     -2.20544432588971     -0.35774049014185
  C   0.30492413621539     -3.46936113350549     -0.52805904575982
  N   0.68549616881185     -4.55502745566087     -0.69934525298279
  C   0.52789540929836     -1.10212634929624     -0.01720937398467
  N   1.76851679795430     -1.40600455892649      0.29951320310208
  C   2.83680048960543     -0.65898738917483      0.51448649616575
  N   3.82779720066868     -1.30089076201333      1.16642434673068
  C   3.07187763268131      0.66901082692086      0.06521727859462
  C   4.40751084423072      1.10891796144348      0.06169835673541
  N   5.51329347042124      1.47471083717074      0.06494371537380
  C   2.08807898780115      1.59357420922468     -0.34506862481593
  N   2.52374144904337      2.77818980237096     -0.81144161027237
  C   0.66361180133097      1.40742520324051     -0.25832012002538
  C   -0.05312352698885      2.57930679296351     -0.59781945514794
  N   -0.51248259846441      3.59631885053785     -0.92535205788423
  C   -0.08363080402285      0.24755024187237      0.02338675901163
  C   -1.47953678345396      0.27622277895384      0.19487756254560
  C   -2.36085790748497      1.32496501391698      0.55539656389321
  H   -4.49642365999140     -1.17163856836730      0.05281920758071
  H   -3.43263979879415     -3.16849583103862     -0.69081116126782
  H   -1.99047168243509     -4.08299854456995     -0.89415694418365
  H   3.73248988395746     -2.29411904819507      1.28251069857096
  H   4.73360379197183     -0.88637548542742      1.29313950677594
  H   3.50538875954095      2.98992805688554     -0.83663613059781
  H   1.88077817208710      3.51355051578653     -1.04740147926575
  H   -2.10011087192074      2.32573583255338      0.84549357237767
