27
Coordinates from ORCA-job ./opt_b97-3c_parallel
  N   4.98969013629714     -0.96089231077186     -0.62905771163411
  C   3.89291507364526     -0.62496892619789     -0.44317486134450
  C   2.54074833954641     -0.27925709583615     -0.20131990159220
  C   2.25339439926759      1.06975085396415     -0.19257812060380
  C   1.06263475720163      1.75277697673396      0.04287503946543
  C   1.20782877352375      3.16925729173603      0.09786715650603
  N   1.45380503718928      4.30292215012272      0.12344386536100
  C   -0.25613943677923      1.25721899514046      0.17081651838815
  N   -1.15668360736482      2.23447747375286      0.37766771624189
  C   -2.45637404243693      1.97976178966790      0.33032210313428
  C   -2.93885456998319      0.72800112407297      0.00814252401455
  C   -4.21445910070414      0.19528319085180     -0.23779416672814
  N   -4.14364328746629     -1.11657787462662     -0.55802514587707
  C   -2.84908226698683     -1.46740643442827     -0.49706971755442
  C   -2.01516845122418     -0.36194519771584     -0.15278316231706
  C   -0.63941114802346     -0.15884285647296      0.03314696219642
  C   0.24440919423093     -1.26615552862885      0.20852939136714
  C   -0.35271853290201     -2.51129307105567      0.51611613949959
  N   -0.70786460647741     -3.58231449916353      0.79745058761841
  C   1.65693194967565     -1.36614809565795      0.09766228896488
  N   2.22976497378626     -2.57030301791536      0.25807444977518
  H   3.10609371893648      1.71020829201991     -0.37010026756960
  H   -3.11480846481258      2.81728428166572      0.53256959318469
  H   -5.16244215318857      0.71082794476881     -0.21145475149325
  H   -2.55889761201684     -2.47727262914356     -0.72899360592509
  H   1.67881813860948     -3.39255740147792      0.43489553252379
  H   3.22613106265666     -2.68042991970483      0.18657522369781
