25
Coordinates from ORCA-job ./opt_b97-3c_parallel
  N   4.24280603298991     -2.11543733628224      0.00327049078700
  C   3.17081218261906     -1.67294854820250      0.00258257395172
  C   1.86421479406305     -1.11871594258005      0.00132730465165
  C   0.75927803453979     -1.95653147302980      0.00095318082025
  C   -0.55668060582216     -1.46583229995679     -0.00033215599031
  C   -1.55363396689945     -2.46459382996259     -0.00058227738504
  N   -2.87669866201424     -2.46602945936100     -0.00174537070497
  C   -3.65154019792702     -1.39193640207796     -0.00288282342645
  C   -3.31728199915615     -0.03808027659849     -0.00307085309022
  C   -2.07417817216682      0.55105568816252     -0.00235603074056
  C   -0.78463814570874     -0.01781802887654     -0.00124082546623
  C   0.34196071188962      0.81747540640930     -0.00087704295433
  C   0.50740178815756      2.23633288986286     -0.00151936120237
  C   -0.48403445511275      3.22241565525779     -0.00282815692699
  N   -1.31290152012048      4.04062081147231     -0.00374163233385
  C   1.89119912146649      2.51194514082932     -0.00064696802356
  C   2.61109777340831      1.31899491484412      0.00053858553523
  C   1.69025527757325      0.26888595098664      0.00044052943923
  H   0.91582749590490     -3.02463489443152      0.00164840849524
  H   -1.14553231575341     -3.47195727662092      0.00033601012243
  H   -4.71314114236136     -1.61981091944507     -0.00375790324106
  H   -4.15922238972600      0.64342122029118     -0.00396953283261
  H   -2.09680701014315      1.63040093222203     -0.00277094871457
  H   2.30760146483469      3.50635286792388     -0.00088131644943
  H   3.68374895686516      1.21807926486348      0.00139574537981
