32
Coordinates from ORCA-job ./opt_b97-3c_parallel
  N   2.40440636633857     -4.20753433039932      0.27038208539844
  C   2.23810131013650     -3.06250841902844      0.15084612965639
  C   2.03170034594533     -1.66780889381421      0.01109637053504
  C   3.17488164286226     -0.97685231627024     -0.37348882862288
  N   3.45125935050103      0.30227726236469     -0.56196945143080
  C   2.65299237723434      1.30503078252539     -0.19399271378075
  N   3.25913753221788      2.51110643319581     -0.28117253250154
  C   1.30008341105469      1.26935189016166      0.26710691762691
  C   0.88356011287710      2.42494248808437      0.92567693102452
  N   0.57217333765743      3.42822328306649      1.44290954536573
  C   0.32655961713774      0.21949123439117      0.07366829629264
  C   0.67274055847135     -1.19077368982815      0.12420906949304
  C   -0.33303074123680     -2.14099960385809      0.24989089631774
  C   -1.69765749224560     -1.83620754823810      0.22561377103649
  N   -2.64350831277210     -2.84016759543173      0.31549154334650
  C   -2.04234562949971     -0.50140758407009      0.09529270856188
  C   -3.28882634811051      0.15701976726081     -0.08693647331457
  N   -4.52300928553736     -0.39827986558962      0.00791567082201
  N   -3.13838359818938      1.45008461611029     -0.40617778157317
  C   -1.80927772875296      1.70075695901927     -0.38097169684597
  N   -1.38726517594955      2.91008732008643     -0.76084253451905
  C   -1.03661768064242      0.50725735995236     -0.04030346255046
  H   4.03335368904802     -1.61696776817382     -0.55637816695388
  H   2.83453823535682      3.34193987696559      0.08928614810797
  H   4.25306799255049      2.50073008218572     -0.42444613500707
  H   -0.04779147488750     -3.18087998166986      0.32265155944556
  H   -2.26902042763442     -3.77108040073466      0.22704765548438
  H   -3.45033079495200     -2.71803555224859     -0.27650185527126
  H   -5.28052011055547      0.26625603019807     -0.00720090137176
  H   -4.63665310647293     -1.13712808133503      0.68250381506757
  H   -2.12845677290586      3.56906024710554     -0.93972030762871
  H   -0.55028402494610      3.30359286721208     -0.35619753560719
