26
Coordinates from ORCA-job ./opt_b97-3c_parallel
  N   -5.01263338511294     -0.25161667109503     -0.01022477693042
  C   -3.89292353216182     -0.56358548789147      0.00846070357468
  C   -2.55630575542046     -0.98053425453174      0.03655489603360
  C   -2.09542937968167     -2.32175104151459      0.10041012392853
  N   -0.76288039831055     -2.42591668804376      0.10815300091060
  C   -0.29603536411461     -1.15039280253585      0.06390506115189
  C   -1.38656091754539     -0.20301730978226      0.01284895029508
  C   -1.08523970895754      1.15865297776947     -0.08112449886131
  C   -2.08787895373271      2.15447693670195     -0.20834695994218
  N   -2.87141057684856      3.00365761819079     -0.30960901115003
  C   0.24621138143623      1.56404344358337     -0.05526482591908
  C   1.32402491873615      0.66715105920712      0.01912136101796
  C   2.64352274824850      1.21205343110375      0.13836931683370
  N   2.78001071783507      2.51509017497384      0.45690922349659
  C   3.84634994156305      0.53552301068569     -0.16627592279000
  C   4.06687731348277     -0.79759974803428     -0.36854480998752
  N   3.28189051375478     -1.86246880842134     -0.13645875005045
  C   2.00101898534866     -1.81416101123960      0.10240205160049
  C   1.05124884645265     -0.75135029442092      0.03926715128386
  H   -2.72418880021202     -3.19835222381347      0.14078302620489
  H   0.42788491420372      2.62017943797119     -0.17614369365300
  H   3.69563078083901      2.90887390043959      0.57076605939408
  H   2.02018009945703      3.03734514126781      0.84992984124444
  H   4.72427104847911      1.16662279268709     -0.25455117295065
  H   5.06848670953474     -1.06625481632812     -0.68901166282885
  H   1.54999023572681     -2.77217613022873      0.33610500229345
