27
Coordinates from ORCA-job ./opt_b97-3c_parallel
  N   6.11196375541311      1.20886203067585     -0.00165145420395
  C   5.00520132469307      0.85458237995975     -0.00094184413424
  C   3.65668633612638      0.42718336315258     -0.00460973086417
  C   3.36568756951719     -0.82738765161450      0.55293374207148
  N   2.26944154269618     -1.54343220491141      0.50829983799639
  C   1.04916944065410     -1.19249168438686      0.07819603900015
  N   0.19947148949481     -2.20031308403995     -0.08406188887305
  C   -1.11885993365642     -1.97420967715477     -0.15283795098484
  N   -1.89366412321510     -3.05500133874748     -0.42124601016940
  C   -1.65687142943490     -0.70413950035772      0.09394913717415
  C   -2.96223861918940     -0.20808140422224      0.17696876737055
  N   -4.12664019205219     -0.91125644166780      0.22915285436447
  C   -2.87489166964280      1.23371232129600      0.14250137332585
  C   -4.00266077521265      2.06103338845497      0.23001758202703
  N   -4.98638229780094      2.67621703041843      0.31156126308330
  C   -1.53834439432271      1.60184794092613      0.03901181374262
  C   -0.75868927680031      0.42157777459151      0.03001697519995
  C   0.60768069459364      0.22230108149904     -0.11123672804293
  N   1.38792053008077      1.24785533356650     -0.50390879170798
  C   2.69070645195344      1.31133983759080     -0.53478142644206
  H   4.18700492316558     -1.31342019023736      1.07217982695161
  H   -1.39279603107450     -3.87892148431313     -0.71217747106402
  H   -2.78875199105583     -2.90592560735708     -0.85548432519228
  H   -4.10423656229874     -1.79462620268497      0.71177686108764
  H   -4.95997418157491     -0.37673199845178      0.41950465627296
  H   -1.15978396811485      2.60804251275160     -0.00430068050732
  H   3.08229525795770      2.21371701686403     -0.99556683718197
