33
Coordinates from ORCA-job ./opt_b97-3c_parallel
  N   -5.23163852972654      0.93986189176159     -1.61835180946532
  C   -4.22480800571161      0.63163344018352     -1.12880730431012
  C   -2.98972222847426      0.27205696082309     -0.52520226118058
  C   -2.78824240711474     -1.07047443723804     -0.25690050229597
  C   -1.69466515351473     -1.68289367701429      0.35044904319873
  C   -1.88053108262180     -3.03698409053707      0.72379643460473
  N   -1.98775757256393     -4.14412702911582      1.06118194571686
  C   -0.40417298964908     -1.13928729743321      0.60716308564894
  N   0.45739305036340     -1.91691088185097      1.26857379260165
  C   0.07128944333338      0.17411451555618      0.22583898512297
  C   -0.82509507697067      1.33498824895832      0.24810324408326
  C   -2.13795897834137      1.33397831222760     -0.16603520372975
  C   -0.24725592022061      2.63689837085211      0.51996313518091
  N   -1.09858757712616      3.69865650007788      0.76839596423280
  C   1.10918389955753      2.82911779497436      0.41458017278671
  C   1.95063845466185      1.77094836911132      0.06609463031585
  C   3.31581590717166      1.73697108913836     -0.15992638960440
  C   3.68608243602096      0.39321633088620     -0.39841390812944
  N   4.92991789248662     -0.05176148244716     -0.67575569124718
  C   2.54322866620982     -0.44339116376863     -0.27890299682298
  C   2.57613747428125     -1.78707147118297     -0.63797104682647
  N   2.66564792701281     -2.91526073803025     -0.92458918104024
  C   1.42034708446645      0.40448710688424      0.00728323602749
  H   -3.61241427770236     -1.73033137732717     -0.49101333359778
  H   0.26686551398435     -2.89258392419885      1.42795499916049
  H   1.39768143551606     -1.60239517510116      1.42759426168461
  H   -2.57099259405164      2.31516968601220     -0.30602424738901
  H   -1.83988669587589      3.52612551112269      1.42674752143829
  H   -0.63966926924522      4.57607608858075      0.94517030543586
  H   1.52916021916075      3.81239568532958      0.59007698624180
  H   3.98707587432272      2.58095238684178     -0.15346286362735
  H   5.61839011268044      0.60192275236625     -1.00096172384729
  H   5.03815298948040     -0.99718013604232     -1.00277422426831
