26
Coordinates from ORCA-job ./opt_b97-3c_parallel
  N   5.11192050337322     -2.00286899910142      0.00140785057091
  C   4.16378931193508     -1.33376740255091      0.00123000295695
  C   3.01164591809879     -0.49933989408251      0.00112240922734
  C   3.24888450696076      0.89276621312018      0.00188091372317
  C   2.35276624260596      1.91197723256625      0.00200707546764
  C   0.93095700988326      1.91149760299478      0.00149072712351
  N   0.35742534411032      3.11114893228051      0.00197566452312
  C   0.04737463082404      0.76410292371768      0.00048745802418
  C   0.46744072918302     -0.62197765897452     -0.00006487270524
  C   1.78447787806281     -1.12566427604418      0.00026071994990
  C   -0.51422596788590     -1.64470333032742     -0.00104847341360
  C   -1.87736846927045     -1.40943317410500     -0.00154327847274
  C   -2.79111621198693     -2.49322570277850     -0.00252518449777
  N   -3.51477081478977     -3.39904433189492     -0.00336561948719
  C   -2.30963944474880     -0.07664253278969     -0.00103426070558
  N   -3.54949194774345      0.43991189807056     -0.00132476924333
  C   -3.32260955753957      1.76817164631302     -0.00050721686408
  N   -2.03496788769694      2.16036681567954      0.00030373818365
  C   -1.33751572635148      0.98404226964431     -0.00001951555630
  H   4.29102418884936      1.18388546419330      0.00243691978144
  H   2.78976325894212      2.90363636785194      0.00265899426648
  H   -0.68145802025990      3.16836300284469      0.00153201324827
  H   0.92411843970635      3.94113900568610      0.00256925834647
  H   1.83935375227086     -2.20597261363808     -0.00026366674314
  H   -0.17566312487601     -2.66937585335878     -0.00143590051638
  H   -4.12998908105674      2.48442645688305     -0.00048902908766
