29
Coordinates from ORCA-job ./opt_b97-3c_parallel
  N   -5.52402478839501     -0.71515025436937     -0.72325888043768
  C   -4.47564915417812     -0.28485354337524     -0.47349313304318
  C   -3.18948521727997      0.24005144010939     -0.16036989517836
  C   -3.12562159946808      1.59585370346418      0.14527043296220
  C   -1.98024104422991      2.33350317301864      0.40358465935906
  C   -0.65792203949668      1.94863455825981      0.34693285593063
  C   -0.03721472586286      0.70516202106190      0.10696314538603
  C   -0.77470871663105     -0.57203607836689      0.07019653993723
  C   -2.14159026416820     -0.69247520865947     -0.14483457183919
  C   -0.04623901005717     -1.80372646425339      0.16288861472407
  N   -0.72871353682163     -2.99775616371454      0.27874088268059
  C   1.34987944842361     -1.79839723073071      0.05373264483963
  C   2.04990081448778     -3.02441341403849      0.13507418757157
  N   2.59194768551002     -4.04861423838507      0.21071938497244
  C   2.05717935322561     -0.60105249227410     -0.11076900130971
  C   3.42283205846394     -0.35348806428057     -0.24298336603714
  C   3.60166189671002      1.03311602568575     -0.27360129594726
  C   2.35806837529350      1.67811735936564     -0.15137054531888
  C   2.18634397076642      3.06486726861282     -0.17090824628548
  N   2.03729530880501      4.22027366943414     -0.18028005125918
  C   1.34932842477294      0.66309911172703     -0.04848738462864
  H   -4.06600734485978      2.12999010677451      0.16480597756625
  H   -2.14186994100502      3.37937191995940      0.63040310843474
  H   0.03323702983355      2.76154377218469      0.50953016181420
  H   -2.46472474928922     -1.69981475455325     -0.36940895902431
  H   -0.14811082525468     -3.81913689168061      0.33827771951158
  H   -1.47004860516742     -3.02177330526862      0.95872868930634
  H   4.19841647999169     -1.09873681367192     -0.30630370622596
  H   4.54200865898111      1.54898516706377     -0.38226442156140
