26
Coordinates from ORCA-job ./opt_b97-3c_parallel
  N   5.62455457736261      1.07978440743321     -0.24278005612935
  C   4.53884371119417      0.66965116150009     -0.17676516993383
  C   3.22620306487906      0.17355274709713     -0.09502694358056
  C   2.86671790082025     -1.19298249395616      0.01458747572099
  C   1.47395177363726     -1.25579118732119      0.05301172015143
  C   0.59278946043479     -2.32984761567754      0.14825813846898
  C   -0.76552690174172     -2.11605136831118      0.13993690008825
  C   -1.34202286779034     -0.82991523099026      0.04134991563226
  N   -2.67092404847070     -0.84232285250302     -0.04886229947464
  C   -3.56589957202822      0.13476598698769     -0.11039197793166
  N   -4.83248600111793     -0.30248066144027     -0.37610238579092
  C   -3.38368274971912      1.52154555305677      0.07295372812723
  C   -2.18027901566016      2.17172947989222      0.18381310811088
  C   -0.88910400676291      1.66171431790409      0.14459027160947
  C   -0.43539834456724      0.34979885085682      0.02685539591161
  C   0.95128495383123      0.09122921012256     -0.02449677984159
  C   2.05886830374573      0.95669470295792     -0.11786863961451
  H   3.55529280930321     -2.02092676044428      0.05469359421150
  H   0.97441401522312     -3.34178405453671      0.21051150990789
  H   -1.45536845052886     -2.94560555307439      0.17175710053114
  H   -4.98815680695260     -1.29118533600437     -0.29004619359382
  H   -5.61816318594288      0.29935241414982     -0.21273306612298
  H   -4.27844684039730      2.13165056410769      0.10685013924781
  H   -2.24361036478170      3.24542413604472      0.31467196999119
  H   -0.11054371016597      2.40727000985800      0.23303627624458
  H   2.05238389059619      2.02965115859065     -0.21582066614131
