28
Coordinates from ORCA-job ./opt_b97-3c_parallel
  N   -5.95755065662721      1.45589212766680     -0.00095322573019
  C   -4.86918241621506      1.05031606827206     -0.00096305419751
  C   -3.54096544992797      0.55015115868532     -0.00065398748120
  C   -3.38799634560038     -0.84363846096696      0.00080182937747
  C   -2.23572367194587     -1.58819854744339      0.00145517757675
  C   -0.86414129666302     -1.24637254911294      0.00094852292570
  C   0.03014398427551     -2.31256009704155      0.00197698573746
  C   1.42152284261659     -2.16209050975062      0.00171631620653
  N   2.22236375598447     -3.24633324819373      0.00238286831864
  C   1.95309050097305     -0.85805066530162      0.00029041618155
  C   3.25960021954505     -0.39200223137161     -0.00023584157563
  C   3.20183160973802      1.02920416221729     -0.00162124143371
  C   4.31952664037982      1.88243409072349     -0.00243950138148
  N   5.24861577301095      2.58045794592031     -0.00287558629136
  C   1.86445764606152      1.43645221830615     -0.00196324092759
  C   1.05535995959312      0.27881728173072     -0.00076963314753
  C   -0.34548100602974      0.13090861186799     -0.00050974731379
  C   -1.14336507311341      1.28378911980304     -0.00170160842015
  C   -2.50715134144015      1.48768658590469     -0.00179047370648
  H   -4.30884001416939     -1.41174876720903      0.00151788184940
  H   -2.41149089194553     -2.65756895546475      0.00259848600464
  H   -0.37517985015367     -3.31630951332227      0.00302192631068
  H   1.84330658859251     -4.17406318417205      0.00548810783396
  H   3.21966816684129     -3.15469023204211      0.00438998180759
  H   4.17422837908329     -0.96276584592024      0.00018602962645
  H   1.54534996160171      2.46454145064887     -0.00293738241063
  H   -0.57692748108282      2.20460882920641     -0.00274286453837
  H   -2.81922396868269      2.52368643485975     -0.00287890200120
