32
Coordinates from ORCA-job ./opt_b97-3c_parallel
  N   -0.23727589506298     -3.11129779860977      1.46484133457048
  C   -0.61167636530367     -2.12376853360563      0.95437102490834
  C   -1.07490914424559     -0.99250812468125      0.29220266169163
  C   -2.41645150268137     -1.07578180238827     -0.19380283277834
  N   -2.94381591120561     -2.33417198419545     -0.34822292244719
  C   -3.21523878239058     -0.00805820087307     -0.55073762590153
  C   -2.98190350313784      1.34128251707771     -0.22706827074653
  N   -4.05020351578646      2.19527637597846     -0.41618733006188
  N   -1.89929812880011      1.95797051791902      0.20516785401825
  C   -0.62840778160783      1.50237814951394      0.24065561844350
  C   0.32783125886485      2.50995753028841      0.45513035165795
  C   1.68847907082697      2.27640270694174      0.40812141452881
  C   2.13872362334438      1.00161173320601      0.14833118660668
  C   3.45770596465528      0.51221688565178     -0.12348364588588
  N   4.58406026157656      1.26512839391716     -0.08792178567018
  C   3.36967131209808     -0.82788772535792     -0.49503008733385
  C   2.02482688281152     -1.22496831971689     -0.42897502884448
  N   1.59924067554887     -2.43978581767604     -0.82260262039553
  C   1.21236603285279     -0.07583627049758     -0.01613443631492
  C   -0.16579989945838      0.11900545116867      0.12777740414647
  H   -2.45633717944573     -3.09898914759128      0.08711815616242
  H   -3.94439141190987     -2.41362950267150     -0.31131179238790
  H   -4.17082446057781     -0.24341272318786     -1.00434786712774
  H   -3.91225248399733      3.10154665096238     -0.00153247240084
  H   -4.97526409799050      1.81669613889232     -0.31121832725168
  H   -0.05741601603691      3.50490183449869      0.62088759504347
  H   2.37432469608976      3.10697424337723      0.53049349772107
  H   4.56679730496616      2.11749987291197      0.44254846986874
  H   5.47051425951062      0.79337159288914     -0.09118760280094
  H   4.19213818166257     -1.46867777862009     -0.77309123071680
  H   2.32102937445382     -3.09540398503334     -1.07248750054930
  H   0.81853101437650     -2.86851597248868     -0.34504407225222
