26
Coordinates from ORCA-job ./opt_b97-3c_parallel
  N   3.57069851022572     -2.10488734519891      0.09707210959578
  C   2.81704746098520     -0.95729865965042      0.04260337817351
  C   1.43160099673883     -1.10139529942776      0.03947593482535
  C   0.38036852015835     -0.17402086883763      0.01681920983342
  C   0.56630915785788      1.28672745940910     -0.00015540363709
  C   1.82274762299352      1.90267181412021      0.01202525791952
  C   3.10936021170368      1.37672646322420      0.03282501247136
  N   3.58826356609149      0.14957249520013      0.04005932928842
  N   -0.46987138462002      2.15526683040630     -0.02760162885630
  C   -1.71779926145725      1.68933001504202     -0.03413479139815
  C   -2.02851348361411      0.35051415717288     -0.00779214072712
  C   -3.25597182969966     -0.36764608999189      0.00055584481083
  N   -4.51345909858042      0.16941517100949     -0.07309255865498
  C   -2.93942246983541     -1.74196155250301      0.01935434802766
  C   -1.55409752739181     -1.88981220001966      0.02895677159894
  C   -0.95209919070041     -0.61256684989826      0.01586039031510
  H   3.16304924672020     -2.96754851594696     -0.21463514458549
  H   4.54309167052469     -1.97528060210170     -0.12199790589727
  H   1.10370184214400     -2.13429010676133      0.06303152258072
  H   1.76680097775503      2.98294495022451      0.00022724530504
  H   3.89367202052512      2.13015190784922      0.03692582975363
  H   -2.49224864648113      2.45230044648361     -0.06598624157490
  H   -4.61854233439426      1.12220038638409      0.22973911519702
  H   -5.26892431581480     -0.42115944318951      0.22930413379968
  H   -3.65939769183831     -2.54649561688013      0.02353914304782
  H   -1.04560718569610     -2.84134944221856      0.05277726778753
