31
Coordinates from ORCA-job ./opt_b97-3c_parallel
  N   -5.10936286751559     -2.22853056057398      0.48428626781307
  C   -4.08238452071101     -1.69680453092281      0.34881146315955
  C   -2.89010571750559     -0.97937185408339      0.19338979024553
  C   -1.58774228861789     -1.48056962330413      0.10419382143556
  C   -0.70793613233308     -0.38592759529770      0.01072448562991
  C   -1.49711518519757      0.81680828556436      0.01599944240421
  C   -0.84411216350384      2.03642606859196     -0.22153325060219
  N   -1.55184880726813      3.19835657690354     -0.39113078720850
  N   0.47655045901814      2.13414840808432     -0.26314863898302
  C   1.26023531683533      1.03356919030130     -0.12265074930215
  C   2.60888191080949      1.31001540861348      0.01445352982628
  C   3.71921467978573      0.45968910351015      0.18481609533074
  N   4.92614856002620      1.09747520927346      0.36848414527536
  C   3.72797361319190     -0.92268144437695      0.12048343504948
  C   2.63503304396333     -1.75683157733615     -0.16925728732146
  N   2.92157390810363     -3.09029816255097     -0.35514487219954
  N   1.34046934281807     -1.49373478668375     -0.21495493890403
  C   0.68737573343983     -0.33659553609290     -0.09832910738794
  C   -2.83953805504229      0.45731484429355      0.14558867306322
  N   -3.93553612363058      1.29245614524762      0.17938494483697
  H   -1.30769196314496     -2.51895479413943      0.12912238331009
  H   -2.45578902214271      3.10529183994614     -0.82652494163507
  H   -0.99448658297594      3.95682235796416     -0.75104885577985
  H   2.82391349945602      2.37154622686354      0.01489306988446
  H   4.89478469857266      2.03903993194620      0.71700987139382
  H   5.68050173810442      0.55316146286689      0.74772023843559
  H   4.68353039666953     -1.41475300904243      0.26082514760704
  H   3.82217931243242     -3.33529426753862     -0.72602447904269
  H   2.14920502832323     -3.63101692813971     -0.70523007810842
  H   -3.81167758033625      2.12702002893339      0.73181162547407
  H   -4.80080543822484      0.82726026437863      0.40943145839983
