32
Coordinates from ORCA-job ./opt_b97-3c_parallel
  N   5.45233918923637     -0.89987685385444      1.24052161743660
  C   4.46037172206234     -0.44108414758484      0.84561892667602
  C   3.25235525319639      0.12188787051475      0.35954651557888
  C   3.29098635542084      1.45551969892745     -0.05586601137431
  C   2.26049059771214      2.22967426793211     -0.51913052776957
  C   0.87041898738587      1.99823770816261     -0.51568697801737
  N   0.12287041037141      3.05312189145894     -0.91968968278045
  C   0.16350481008898      0.81029102234425     -0.12014755849869
  C   0.83307066309323     -0.50288336369301     -0.10595324744653
  C   2.15839044001929     -0.73853392609880      0.22743929891403
  C   0.03415246980041     -1.68419939561798     -0.28945057392455
  N   0.65966503889798     -2.90145242019063     -0.46894594305767
  C   -1.35640790983468     -1.61633937675401     -0.19707618396027
  C   -2.12475479977683     -2.78472410155396     -0.38812230877706
  N   -2.73549569148690     -3.76038445193617     -0.55139880602994
  C   -1.99337266555364     -0.39882798113764      0.10162059153957
  C   -3.32010832920472     -0.09881300525345      0.30825190870856
  C   -3.41342245225161      1.31140392992962      0.48179903462852
  N   -4.57946500890133      1.97951718961709      0.72035772282559
  C   -2.14876521173141      1.89396995079712      0.32320714174854
  C   -1.21302496555197      0.84873227875821      0.10224652632373
  H   4.26451994664446      1.92861141924696     -0.03664881623380
  H   2.54890889477702      3.21870050917957     -0.85609931945333
  H   -0.84943615653225      2.89863363322430     -1.14234513066538
  H   0.57940697686964      3.81494287032081     -1.38792641391632
  H   2.38097811625258     -1.77245240706252      0.45536145580198
  H   1.41398573197738     -2.91780229932200     -1.13396409066682
  H   0.04207487420906     -3.68940688169619     -0.58100533968443
  H   -4.14132058069913     -0.79750348449837      0.32443348674563
  H   -5.33399564518168      1.45063300257813      1.12165956580167
  H   -4.50900359337071      2.91625961990814      1.07764693107488
  H   -1.93049319353947      2.92594088025372      0.54206417025248
