34
Coordinates from ORCA-job ./opt_b97-3c_parallel
  N   -5.21032372519841     -1.04292492561220      0.34888468461625
  C   -4.13783756372610     -0.60289856610936      0.23006906636396
  C   -2.84507372733621     -0.06269238135093      0.10255347246220
  C   -2.70719300333337      1.31311718909019      0.46045690864891
  N   -3.71677800977598      1.87963108939836      1.15568048074958
  C   -1.69298157301205      2.14467923696084     -0.00932906592375
  C   -0.50008877525400      1.76299190047034     -0.59526910601516
  N   0.12924018285866      2.62250572808907     -1.40963737600952
  C   0.20632427085980      0.51609507977072     -0.30237459887927
  C   -0.43031884902006     -0.75767370549999     -0.29547881091249
  C   -1.87063947821633     -0.90348133746293     -0.48081189593465
  N   -2.30649197124518     -1.96894789351736     -1.16726919837237
  C   0.36006687565839     -1.93170420882612     -0.11908055754749
  N   -0.23741144236647     -3.21276934709128     -0.09041510513375
  C   1.75008696577696     -1.84217571062529      0.01315092462070
  C   2.50154575212184     -3.02529488986877      0.20137381235574
  N   3.03569629469447     -4.04568701564309      0.34956382271235
  C   2.37520706088308     -0.59144448000346      0.04818382673456
  N   3.68085661724634     -0.33750794258705      0.27308418350217
  C   3.76862527397879      1.00004055325964      0.34414288989065
  C   2.53734423431069      1.65754124930487      0.14592676050399
  C   2.31725263939069      3.02529574908437      0.31295507912481
  N   2.10824807144460      4.16657892435136      0.43196172862225
  C   1.58543006083096      0.60165774238521     -0.07138937621628
  H   -3.73102407040618      2.87150587071523      1.30199610668210
  H   -4.57186604000445      1.38104542878287      1.32990056639705
  H   -1.90695898624569      3.20680961746715     -0.00324500177012
  H   1.08239398953525      2.43848000833358     -1.67029656871486
  H   -0.12697362995370      3.59553765844499     -1.40898358362973
  H   -3.29193843191278     -2.17406091293375     -1.20022507534550
  H   -1.66106406140659     -2.73858734189091     -1.31357709829319
  H   0.45603261153526     -3.94078320754176      0.01553790264229
  H   -0.91127839196839     -3.30824218767608      0.65833090623831
  H   4.70785765955614      1.48626404913157      0.56165362183026
