30
Coordinates from ORCA-job ./opt_b97-3c_parallel
  N   4.73338171844330      2.96720789065462      0.85807377672247
  C   3.98174275397081      2.12258559212559      0.59804539575295
  C   3.05095128431129      1.09449854575995      0.27360161529937
  C   3.58462729192916     -0.16071555637490      0.02156338368935
  C   2.87292973749486     -1.33810486278008     -0.23353466111435
  C   3.66376391921345     -2.49645770440711     -0.48818770667936
  N   4.30546645890866     -3.43957804400794     -0.69801837501239
  C   1.49635898107076     -1.54099535845497     -0.20748754984252
  C   0.41599299151174     -0.66425842431978     -0.03622903002493
  C   0.53418026688928      0.80565211249589     -0.05361583479810
  C   1.70794921622072      1.50156677064605      0.19065855304711
  C   -0.64619306081156      1.59372565361489     -0.23435699524055
  N   -0.53964975535248      2.95036032610941     -0.42031798904524
  C   -1.91980831072531      0.99530171178371     -0.14609068044525
  C   -3.04791926279996      1.83247390614683     -0.31631868554726
  N   -3.89956549723245      2.60424654259237     -0.47936280975925
  C   -2.04820551914379     -0.37448856566784      0.08186257872188
  C   -3.16709873522686     -1.21107012118103      0.21466378838716
  C   -4.51714351188616     -0.84188462384112      0.24736141310937
  N   -5.64755881003116     -0.57162450503117      0.28292305653400
  C   -2.68262279258325     -2.54954612552553      0.32278430658564
  C   -1.30442863466369     -2.55441433996811      0.25121727424089
  C   -0.86022317871058     -1.21515980573126      0.10295561653030
  H   4.66184285931539     -0.24359084153068      0.03993615011575
  H   1.20743685144322     -2.57256238021857     -0.34702202765447
  H   1.57073595994933      2.55803128667184      0.37674014400252
  H   0.17482885371772      3.27067102276471     -1.05083421808316
  H   -1.40642442644126      3.44943938507849     -0.54105535622224
  H   -3.31608096469014     -3.41176803674702      0.45275570889686
  H   -0.68672571668922     -3.43250589925004      0.33928831313275
