30
Coordinates from ORCA-job ./opt_b97-3c_parallel
  N   3.49358676353593     -3.63201089930564     -0.04083928522543
  C   2.63998439871476     -2.84709505223203     -0.00459672971082
  C   1.56706677913834     -1.92375693189017      0.04230634023762
  C   0.25780217904877     -2.38082785450630      0.13551557465074
  C   -0.84571286575512     -1.51629905360252      0.17488224836162
  C   -2.11771868409239     -2.14302310911809      0.13221354102950
  C   -3.35913777694266     -1.63054965050681     -0.08060688158142
  C   -3.67051532472847     -0.25328039812849     -0.25905196291832
  N   -4.87059092939479      0.04812166211009     -0.80677480740270
  N   -2.96372628257000      0.77961490989296      0.14928913065414
  C   -1.70702411754340      0.80894014995813      0.56254285132626
  N   -1.40704618509753      1.83016996114785      1.36964310915553
  C   -0.62463093071328     -0.09548865882188      0.20551765405902
  C   0.67799747777700      0.38036528943002      0.04082480398275
  C   1.28898665892450      1.66386806529314     -0.08486102921782
  C   0.72548354684139      2.92491360500163     -0.24458281227704
  N   0.28985656030258      4.00150702512279     -0.36630685498796
  C   2.68493227616100      1.39616976078483     -0.22443322906622
  N   3.65644826906344      2.31983071425803     -0.36307673457016
  N   2.97758814963434      0.08104777639657     -0.17859358329532
  C   1.79765369077784     -0.54266938178999     -0.03934834976771
  H   0.08255936800237     -3.44646845686102      0.14542111918876
  H   -2.07755301065633     -3.22353778085943      0.20359551018279
  H   -4.18057788733260     -2.32897509352212     -0.17624723617162
  H   -5.07510681123525      1.01431694627959     -0.99084172761874
  H   -5.39028875474936     -0.64636317564131     -1.30907828473430
  H   -2.06150018618104      2.58880487994924      1.45230001593842
  H   -0.45672660513634      2.00408599712963      1.64268492735177
  H   4.55419459176098      1.98874717525908     -0.66959471782507
  H   3.40330059314532      3.25644512817232     -0.62296913234824
