29
Coordinates from ORCA-job ./opt_b97-3c_parallel
  N   3.95399001748766     -1.75798758012210     -0.24061644324610
  C   3.11738197183021     -0.67681379837695     -0.08450614489462
  C   1.74450125339686     -0.93362744633131     -0.10627309535305
  C   0.62642580419613     -0.09306220933453      0.01373510153552
  C   0.69320054057054      1.37632045936077      0.02513227912140
  C   1.90550012748317      2.08282459984541      0.14084693775582
  C   3.21574858325457      1.64762679324248      0.22251132070510
  N   3.79729156813290      0.46259086950449      0.12205783444659
  N   -0.40097745173231      2.15231693770065     -0.02100814041737
  C   -1.62892247723104      1.61653005662650     -0.07068486047342
  N   -2.66924130939737      2.51109097110198     -0.13098716852666
  C   -1.82089078052236      0.24412251085506     -0.07156170436736
  C   -2.93674575588488     -0.61498612730193     -0.08786238613327
  N   -4.25930818601507     -0.26349974505978     -0.21097749064637
  N   -2.57557718084916     -1.90421304998728      0.08995352384739
  C   -1.22874532201456     -1.91598697151199      0.18822906193514
  N   -0.57321033987938     -3.10180747360544      0.37321253718184
  C   -0.67171461394523     -0.61179791963208      0.05738971445138
  H   3.60652647949495     -2.56361357265941     -0.72926866468466
  H   4.90891001471215     -1.51143375859863     -0.43692342746015
  H   1.50372053342901     -1.97140546036277     -0.29552402947650
  H   1.77118414508171      3.15421361016887      0.20567213882118
  H   3.93570379415212      2.44826468361855      0.37706282827712
  H   -2.38542200455975      3.45311945150068      0.08812830411559
  H   -3.51876993760832      2.22749167887264      0.33000417204712
  H   -4.44122328862902      0.47054143525640     -0.87781585460496
  H   -4.85833419798606     -1.06187822180653     -0.35503081553630
  H   -1.18505134124283     -3.84517067210282      0.67275336986355
  H   0.27959631157529     -3.05231460716082      0.90731877851599
