34
Coordinates from ORCA-job ./opt_b97-3c_parallel
  N   -2.78334706769295     -3.49931553074641      0.51496594626675
  C   -2.42166891075633     -2.41006444063113      0.31601293915805
  C   -2.00376443041056     -1.08789824743376      0.07349619176079
  C   -2.96258411535871     -0.23372727772294     -0.54584697531540
  N   -4.00951186115941     -0.83527539892934     -1.17534331230104
  C   -2.97624929538779      1.14882783293963     -0.45068146995101
  C   -2.01518751350325      2.02713873794836      0.04725823175543
  N   -2.46601782626176      3.30821401850837      0.26315024385136
  C   -0.60751089734867      1.78875274618181      0.16246501765386
  C   0.23862994049313      2.92237530788444      0.14491961238115
  C   1.60819101189438      2.83311107276362      0.09729469461835
  C   2.22295139298038      1.58695294617781      0.02665166874733
  C   3.56334912987534      1.21906248707405     -0.11918032810435
  C   3.61671009408183     -0.17469183126007     -0.22774297123065
  N   4.73665108205734     -0.94131797764049     -0.37974030202802
  C   2.29686975134158     -0.71040598878486     -0.11613422132750
  C   2.02935528875347     -2.04899894105047     -0.38311112100954
  N   1.86155480675361     -3.18511092638570     -0.59781304624085
  C   1.39525195942738      0.39185704367832      0.05228000120515
  C   0.00215899358493      0.48572484537153      0.19490360816677
  C   -0.73517681991867     -0.72106749948119      0.54931470814146
  N   -0.11005829796053     -1.56905395251503      1.37960917357039
  H   -4.16435137381168     -1.82015912833540     -1.04384534932790
  H   -4.82840544342276     -0.29270513443722     -1.37889902208139
  H   -3.90170459685622      1.61795369462791     -0.76685671702276
  H   -1.94573921366876      3.87374678870539      0.90795950666822
  H   -3.45985224903476      3.41926788095911      0.35152693190368
  H   -0.19336321445307      3.90608146554405      0.04918533782534
  H   2.20332855948488      3.73640953959839      0.05325160188125
  H   4.40686406601273      1.89006552826740     -0.16200877993341
  H   4.59021723915459     -1.88614599787597     -0.69635273782787
  H   5.53232683610180     -0.49589431070792     -0.80186134419532
  H   -0.41362843497151     -2.52605381198876      1.45825997702218
  H   0.85459928138002     -1.39628772570325      1.60252214081958
