29
Coordinates from ORCA-job ./opt_b97-3c_parallel
  N   -0.28734270731131     -3.40869109813236     -1.34444441585922
  C   0.25111676691122     -2.48035929383497     -0.88879018986536
  C   0.90332661536793     -1.36311167069235     -0.33412106934445
  C   2.27933257344655     -1.57458676897831     -0.14903462656112
  N   3.26363735290658     -0.80212074580189      0.23988343294382
  C   3.16877326447704      0.53574466160722      0.35689166005462
  N   4.31576451378245      1.09880414769745      0.83203483281902
  C   2.11578213181152      1.39124342982556      0.02772108983984
  C   0.75694331904273      1.15124077780161     -0.19792219811833
  N   0.03969673200599      2.25921685082303     -0.44119100517901
  C   -1.29563244015199      2.21674275030232     -0.42293720485650
  N   -1.92400364199808      3.37050799209696     -0.77747576054713
  C   -1.98766577156625      1.06140133671731     -0.05271014727230
  C   -3.32828918233740      0.80997992939269      0.24773140745069
  C   -3.46903751603484     -0.52939015573077      0.61404490309710
  C   -2.22442040702200     -1.16821222075876      0.52830049911167
  N   -1.99195285820695     -2.43619620060599      0.95876624330274
  C   -1.24616250660158     -0.17041319684224      0.10074917423786
  C   0.12393220053482     -0.17791301942735     -0.10213952511133
  H   2.59398471769587     -2.59467607883008     -0.35326101527122
  H   5.13262317801110      0.51411007794493      0.82579013179402
  H   4.45720414649537      2.08902914760589      0.75922515583646
  H   2.34732889813038      2.44918685370131      0.03104397120378
  H   -2.89031748879816      3.48925919060793     -0.53579021364423
  H   -1.35537453236799      4.19924735903615     -0.75373703238176
  H   -4.13913102266969      1.52258062575915      0.20724097429979
  H   -4.38391746057733     -1.00817473080814      0.92738490740316
  H   -1.32557482564035     -3.00154654343936      0.45249623593270
  H   -2.81946944773551     -2.95267234803694      1.20838312068476
