25
Coordinates from ORCA-job ./opt_b97-3c_parallel
  N   -5.45007432599636     -0.62154187155593     -0.56331593937505
  C   -4.39419352583997     -0.17220928101418     -0.37569192076813
  C   -3.13247035484203      0.38772092780976     -0.14559747934097
  C   -2.83993614649789      1.74122756480548      0.14792449232196
  N   -1.52903042931153      1.99460025566066      0.31982926962367
  C   -0.91986521713413      0.79855352336848      0.15434494067661
  C   -1.87803503154709     -0.25537612673171     -0.14725051161137
  N   -1.53464490558501     -1.52393097384861     -0.37204248018968
  C   -0.24395613355869     -1.81305521029621     -0.25941088445146
  C   0.78126601466587     -0.89111230368532      0.03337341607200
  C   2.12456967423826     -1.36330827059175      0.24646860847818
  N   2.29737776464453     -2.63675702219355      0.63728000796013
  N   3.25548398689518     -0.70767317168481      0.01458764598097
  C   3.37969758379345      0.59590601502710     -0.15158336749492
  N   4.46716658820519      1.02036925405577     -0.80781782784432
  N   2.63215913733622      1.61765068266138      0.36437965637864
  C   1.35168425351651      1.53569666187424      0.53884415993106
  C   0.43757330110072      0.48388829541255      0.21790835502540
  H   -3.56950167696337      2.53237552017920      0.23809571392334
  H   0.01695062733540     -2.84338603892662     -0.47359489460747
  H   1.53636938506071     -3.18647969631423      0.98726084734811
  H   3.23476164696222     -2.98136324041938      0.74354362831252
  H   5.12824646706663      0.35589613349088     -1.16572589750234
  H   4.68117195290647      2.00067124164028     -0.81847081963920
  H   0.88268964924833      2.42647003267757      0.94416022979183
