29
Coordinates from ORCA-job ./opt_b97-3c_parallel
  N   -4.03551568308338      2.64066416931612      0.10106579692114
  C   -3.32945538966193      1.72010629465321      0.04509337981044
  C   -2.57594105600877      0.51692329961853     -0.05056119164261
  C   -3.30122857396038     -0.58394416022822     -0.48810083621335
  C   -2.92702602381189     -1.91456507806460     -0.58975348373069
  C   -1.73146077733016     -2.46042263048959     -0.16614062112454
  C   -0.55708006173649     -1.82093137276022      0.22321244920911
  C   0.37899296353489     -2.65580606646822      0.85458704810493
  N   1.17291642073767     -3.35299937468183      1.35121404867739
  C   -0.18856981725266     -0.42007250003374      0.06338974181246
  C   -1.16376579085155      0.65506281729129      0.19516865049002
  N   -0.79947657753392      1.90731377665475      0.48956071276823
  C   0.48985231579281      2.25336102165982      0.48441932242311
  C   1.47232347827651      1.37550792434429      0.12568140761480
  C   2.87447378453499      1.53843440171315     -0.11147184278340
  N   3.54839389977715      2.70674932139511     -0.02691430503515
  C   3.39201494995046      0.30639747418598     -0.50766189079417
  C   2.37119187391199     -0.65897430182266     -0.49036578578848
  N   2.54523920956429     -1.92613505044645     -0.91587955367665
  C   1.12946055311712     -0.00909063186492     -0.09379288985907
  H   -4.33067762690757     -0.36744858919044     -0.74364169938579
  H   -3.68980054229055     -2.60759808416420     -0.91632434881808
  H   -1.70344098008365     -3.54137028063759     -0.09384122896896
  H   0.69589628061704      3.28631639108567      0.74755178843232
  H   4.55196724016290      2.69144098588039     -0.03211830769336
  H   3.13514691655139      3.47528503610792      0.46854914105712
  H   4.41665453511612      0.11127382145714     -0.78476357736824
  H   2.01770323026696     -2.66778090514455     -0.47875025899090
  H   3.49187632300075     -2.19106339926599     -1.13207407874778
