28
Coordinates from ORCA-job ./opt_b97-3c_parallel
  N   -5.00778374328453      0.03707151522117      0.29002085526820
  C   -3.89174747556630     -0.27208003074434      0.18433640039084
  C   -2.51922655826006     -0.60939151882803      0.06226217671705
  C   -2.26857328520922     -1.94314742284772     -0.21925479933287
  C   -1.05222467456831     -2.60226118313765     -0.26889725934160
  C   0.19728472717957     -2.05867890239786     -0.10305166033850
  C   0.62849385820567     -0.72549291154366      0.00002048921107
  C   -0.18910057222039      0.48297022293353     -0.03824381869927
  C   0.47883828975069      1.72722566715349     -0.21866234354111
  N   -0.25932995199038      2.92693685130924     -0.42727620526918
  C   1.86543859531687      1.83551678054021     -0.18310980878750
  C   2.66504848934529      0.72871629022763      0.01696666097697
  C   4.04275155845649      0.48059163597713      0.08545188688780
  C   4.15121236471840     -0.90866314813498      0.18143518130201
  N   2.95532697233794     -1.55173586761450      0.17339685571870
  C   2.03140550522393     -0.57278888787422      0.08491056782658
  C   -1.59576313581561      0.47163724215206      0.27737131330887
  N   -2.12944272331736      1.57616738695909      0.82727738555195
  H   -3.15167611453771     -2.55260637366556     -0.36173586623470
  H   -1.09695474137076     -3.67180996162838     -0.42709820309657
  H   1.02454710566469     -2.75721306888564     -0.09556362334702
  H   -0.86303322495524      2.87027470804346     -1.23692066499213
  H   0.35784784197524      3.71542633520177     -0.54807953985263
  H   2.31094787775134      2.81307119146880     -0.33788910936644
  H   4.84497680104937      1.20000447556568      0.05839030566026
  H   5.06518607982451     -1.48049173714384      0.25829646016687
  H   -3.12587433615514      1.64239069417304      0.95070620276314
  H   -1.59411511934920      2.43934938571959      0.78483865304922
