29
Coordinates from ORCA-job ./opt_b97-3c_parallel
  N   5.80831020259172      0.28546944345260      0.42298552416985
  C   4.69341049560959     -0.01333582476416      0.27278249427973
  C   3.32950520920466     -0.28192477565780      0.11008538221664
  C   2.70483494987126     -1.52221934828733     -0.05515999940806
  C   1.31801755831263     -1.30707325699260     -0.10803978512609
  C   0.26863652995482     -2.18979560228194     -0.22549830582653
  C   -1.04347688893795     -1.71670141324662     -0.18193576058139
  C   -2.11504301212078     -2.63950963518015     -0.22134913680793
  N   -2.96294345383408     -3.43208509614218     -0.26331217171033
  C   -1.35088186270327     -0.32949898115233     -0.04430585973501
  N   -2.63144417759033     -0.06831332238247      0.17790725372993
  C   -3.32604980058417      1.05742837823735      0.21261886716897
  N   -4.58339655968194      0.90715824770636      0.70093531956139
  C   -2.93057573745363      2.34188700012133     -0.22562923753896
  C   -1.63849937676466      2.71520401380232     -0.49739861015935
  C   -0.45454891227353      1.99250432524731     -0.40011570103442
  C   -0.23974544678765      0.63728521048325     -0.11219424069721
  C   1.06175332728618      0.11351024250513     -0.00633003833004
  C   2.32513909551472      0.73981636930296      0.14843818750806
  N   2.60610637927392      2.05866628994074      0.30435239961219
  H   3.20809481600359     -2.47319839517183     -0.11044141326068
  H   0.44355892499744     -3.25302122687519     -0.31598610826077
  H   -5.25495785455900      1.64867335448659      0.63727290572087
  H   -4.92282586517355     -0.03205310541947      0.81396060723942
  H   -3.70279989108638      3.09485763781484     -0.32231125380973
  H   -1.51366246408214      3.74214926558020     -0.82114445496001
  H   0.42712448768324      2.54886278607984     -0.68326002666829
  H   1.88993707629270      2.64446344100457      0.70029063077006
  H   3.53785746253467      2.28188046998804      0.61853554403879
