29
Coordinates from ORCA-job ./opt_b97-3c_parallel
  N   -5.92928621853881     -0.74684046034236     -0.37150629394972
  C   -4.82020471353226     -0.42129168506113     -0.26364915158037
  C   -3.47059150896549     -0.00515713483646     -0.12806192370403
  C   -3.20520847499026      1.36471720774711     -0.35874580634333
  N   -2.14358534551922      2.04374577234801     -0.04735204233930
  C   -0.98154341218253      1.60598793333449      0.44560319424508
  N   -0.35601019732302      2.47266550318408      1.23585255919465
  C   -0.33560465498372      0.34593420848264      0.14736551606935
  C   -1.10920696745545     -0.88005869546647      0.15947915263039
  C   -2.50714060912096     -0.97329348218804      0.12272908706047
  C   -0.42872457670812     -2.11593540025255      0.17936393586310
  C   0.94841318095376     -2.21463191917593      0.09077360307308
  C   1.57729132981875     -3.48425604957201      0.09278342019711
  N   2.06576850141302     -4.53594139528220      0.09859686667933
  C   1.70915061286481     -1.03681432829318     -0.02955733788210
  N   3.03357797005143     -0.94089399345637     -0.14904502693995
  C   3.29353026682805      0.38852750861726     -0.22713977361600
  N   4.54853977595054      0.83178367123525     -0.36928719096532
  C   2.11923447078139      1.19007451198287     -0.12428289898140
  C   2.10884053493159      2.57292073223711     -0.27359553713553
  N   2.14014909898927      3.73449216169093     -0.37969429917557
  C   1.04682980027429      0.26071823107873      0.00461522516734
  H   -4.00116561882908      1.94372341161615     -0.81593981026008
  H   0.55588154306415      2.27565531206002      1.60706761037394
  H   -0.68806573177809      3.42148969902308      1.28073669837407
  H   -2.89313347083153     -1.98056698089790      0.21089087159384
  H   -1.01114209556970     -3.02366822878985      0.22645576147654
  H   4.72763468177032      1.79863552381294     -0.57107589587918
  H   5.26786951193689      0.16147019876376     -0.57325869464642
