31
Coordinates from ORCA-job ./opt_b97-3c_parallel
  N   4.90094141179747      2.96809728094414      0.30096908032386
  C   4.17116317389628      2.06843450979312      0.22364788524521
  C   3.30080841019526      0.95159004457452      0.12815494329381
  C   3.88883565737772     -0.32065903966297      0.30940040538656
  N   3.39257785733028     -1.49192969000751      0.05129534203113
  C   2.14986863957044     -1.82840738139265     -0.33516989004192
  N   2.12315124231845     -2.95257796782718     -1.05918011570050
  C   0.91509044357385     -1.15780855150166     -0.01547382102460
  C   -0.27325240055980     -1.89436919872177      0.14008122957903
  N   -0.25182257458825     -3.29179789868478      0.21107541568416
  C   -1.53538045165801     -1.24866124224463      0.17494662550743
  C   -2.68634619160332     -2.04002777152255      0.38074045257499
  N   -3.58394582766610     -2.75687380598590      0.55741396883332
  C   -1.62406493311640      0.13324648043038      0.01436273609613
  C   -2.66895742855618      1.06308204222615     -0.01334163764659
  C   -4.05096185752161      0.89397475615881      0.07243306875750
  N   -5.21284644639383      0.85178213228900      0.13559167499067
  C   -2.01553220160889      2.33318385149124     -0.14776219393656
  N   -2.62998435812956      3.51712390533207     -0.23994903518420
  N   -0.67069461468731      2.22903558945783     -0.19800876070754
  C   -0.40744751212657      0.91199016958486     -0.10915225268206
  C   0.86394878732933      0.29922812414612     -0.06092897774330
  C   1.94665195415376      1.18348060459228     -0.05816225369176
  H   4.90970168505970     -0.33277739179193      0.67921425591150
  H   1.24285215694993     -3.39720482552310     -1.27523958999464
  H   2.97824129232750     -3.47407757263541     -1.14867497871984
  H   0.43030674164795     -3.65932946814873      0.85682030615002
  H   -1.15777636691694     -3.69371372576746      0.40376986976883
  H   -3.62464887721394      3.58853233724931     -0.12717997915835
  H   -2.08012012481129      4.35624796018469     -0.24987724954441
  H   1.65213478182835      2.22125981126242     -0.14209427485892
