22
Coordinates from ORCA-job ./opt_b97-3c_parallel
  C   3.36457734440004     -0.72786980578905     -0.00923980864377
  C   2.40136623823342     -1.69249347211635     -0.27495202370847
  C   1.03124218030246     -1.55597775628312     -0.22346174004821
  C   0.23347377489747     -0.42004190034613     -0.00268664593965
  C   0.76557253611878      0.97153987201991     -0.00480590817841
  N   2.02516964676242      1.32326921930011      0.25096540692208
  C   3.12533846944602      0.59810497853481      0.32470656533601
  N   -0.04640839432076      2.02870269078524     -0.20708455294759
  C   -1.36091332117103      1.85161265563659     -0.26080317987462
  C   -1.98465007897580      0.63354493757742     -0.04137123291859
  C   -3.32381190293760      0.22889248621392      0.01615867731755
  C   -3.33769233520857     -1.16610659751567      0.20121709226222
  C   -2.02811160551220     -1.64709315004041      0.24210177491361
  C   -1.15401861509166     -0.54483370424278      0.09912726745239
  H   4.40164380881897     -1.04012002728975     -0.01878986100869
  H   2.76685863552362     -2.68607144391904     -0.50552131576804
  H   0.47228198160726     -2.46667417709077     -0.39858032668596
  H   3.99210845384474      1.16856840356639      0.64972792419354
  H   -1.94708759935642      2.74380737535178     -0.46223020331096
  H   -4.18759713204658      0.86951821485400     -0.06849390535603
  H   -4.22518477206901     -1.77317741504319      0.29544407255443
  H   -1.74691990086555     -2.67747084256387      0.39375284673717
