32
Coordinates from ORCA-job ./opt_b97-3c_parallel
  N   2.09606436530107      4.16004477766372      0.29143023932375
  C   1.65360710128601      3.08443884554299      0.24530204832203
  C   1.22348754410496      1.74480160285379      0.18622963932682
  C   2.24030248122328      0.75556572446326      0.18461639181780
  N   3.56428153535453      1.10543554622190      0.27666758003122
  C   1.83071494109757     -0.56007469405822      0.07319248132997
  C   2.55444821197757     -1.76757035866679     -0.09037923510594
  N   3.90196681565336     -1.93698015124010      0.01083781086814
  N   1.75462318050556     -2.79802468298913     -0.40340092489003
  C   0.48751934025718     -2.32685800109763     -0.38935631361182
  N   -0.50111462645385     -3.14830163524761     -0.76908271572217
  C   0.44379093538135     -0.90676945432457     -0.06623256552382
  C   -0.57173956502537      0.04355143113965      0.03774142457341
  C   -1.94481098544940     -0.34040045209619      0.26322972726585
  C   -2.16756904245780     -1.54050716301164      0.93871678183183
  N   -2.40608541304141     -2.55340014296947      1.47454599270592
  C   -3.14100150959344      0.32671718787874     -0.16154652356477
  N   -4.28537090879159     -0.39631947423544     -0.19081769673242
  N   -3.32010960559263      1.58978490207865     -0.54280037221853
  C   -2.38744916599421      2.52955534338841     -0.44322566266909
  C   -1.04670778695888      2.51214150117214     -0.12780547683443
  C   -0.15517321494495      1.43682314740860      0.04549385607101
  H   4.19927721284631      0.53131800667090     -0.25401524428741
  H   3.76257824994736      2.08931630306413      0.17681620125265
  H   4.18993220171483     -2.90295178120695     -0.00933824735745
  H   4.36517148449286     -1.39777224804252      0.72464108836353
  H   -1.41308481744213     -3.06027322954863     -0.34597047702906
  H   -0.20180534759615     -4.09662339665387     -0.93275078572557
  H   -5.13599206713348      0.12466815886153     -0.30621427702893
  H   -4.33655580964534     -1.31931496270853      0.20034227869129
  H   -2.77881345403216      3.52089415191226     -0.65666835920753
  H   -0.59430801668938      3.49440689747385     -0.11824419926602
