28
Coordinates from ORCA-job ./opt_b97-3c_parallel
  N   -3.53715994263291     -1.57330907418219      1.19999993002512
  C   -2.74366015113373     -0.87367086909002      0.72032223478950
  C   -1.82665228844473      0.11307753372261      0.26263080364580
  C   -2.41244236128635      1.39035795435361      0.22946679725731
  C   -1.87994057581076      2.61924535923778     -0.04277169084646
  C   -0.52656736919013      2.94194039289185     -0.23508055766282
  N   -0.22797766520200      4.26318602328782     -0.45768231276988
  C   0.54193075507339      2.05617432727925     -0.11646688085455
  C   0.63279048312595      0.67220289469635      0.04349530231293
  C   -0.49343115316794     -0.27621307625959     -0.02450299749364
  C   -0.19706516130257     -1.63802018614742     -0.28718641675248
  C   -1.18957725136296     -2.55403254611073     -0.70975378810391
  N   -1.91678873820619     -3.34764451172477     -1.14693021519194
  C   1.11767149648318     -2.13245763890096     -0.25398792184450
  C   2.16580328387595     -1.29847660436901      0.03512626746431
  C   3.55490098329985     -1.52775356679290      0.16259716979876
  C   4.16212593374892     -0.29848108305736      0.40669698698033
  C   3.18307473094913      0.71158787159328      0.41900549343945
  C   1.92774420989061      0.12044512884181      0.19370570373965
  H   -3.47406134801631      1.38865896010940      0.43754631324520
  H   -2.58127021421497      3.44440354807983     -0.07184768512077
  H   0.68113417861646      4.48808975688932     -0.82015483768955
  H   -0.96215518457938      4.86225745048591     -0.78959051630228
  H   1.50909725668227      2.53566705723936     -0.19945457261270
  H   1.27717252572993     -3.18267778397347     -0.45814337802139
  H   4.04479498045793     -2.48583854593446      0.09114679068621
  H   5.21626967136424     -0.13971630272840      0.57345972997270
  H   3.38311063845736      1.75386972676403      0.61454738320975
