30
Coordinates from ORCA-job ./opt_b97-3c_parallel
  N   4.74958960843464     -2.46893059283956     -0.36763206603244
  C   4.04371482729983     -1.55592734049762     -0.22145356834909
  C   3.14505686153453     -0.47589257346643     -0.04780621953180
  C   3.74107788209628      0.75552679116881      0.22096970607641
  C   3.15936886407836      1.98430701289852      0.42458914811911
  C   1.81980317359929      2.31535985352663      0.28964186411755
  C   0.70171073737517      1.54377652677226      0.00091754819048
  C   -0.53281677099203      2.28610497264687     -0.18533191964711
  N   -0.49466417226381      3.65009000368029     -0.37497845905888
  N   -1.74324205981909      1.76041191530959     -0.14279048918413
  C   -1.81825045746070      0.43820370222190      0.00067902875407
  C   -2.94436368565873     -0.38852319745114      0.06601416495692
  C   -4.29849834621010     -0.05838784749524      0.05845837645595
  N   -5.44544919013780      0.14181113180576      0.04943381291641
  C   -2.42142880870837     -1.72460857474651      0.07466537503417
  N   -3.16220897875466     -2.84275456182076      0.15677404681040
  N   -1.08227907418229     -1.75456108855223      0.02696899873178
  C   -0.66771181302539     -0.44449951716687      0.00195035254407
  C   0.61768827095112      0.08476901863472     -0.01317286682576
  C   1.75469713197273     -0.82218257504015     -0.07057392724834
  N   1.46727309723003     -2.11457857750594     -0.17688468858010
  H   4.82111452331326      0.72349631627911      0.28978055686867
  H   3.82931323567354      2.79461578692088      0.67771109476628
  H   1.60732981855915      3.36189519492193      0.46021446456031
  H   -1.41260174147433      4.02535943544093     -0.55361147571243
  H   0.20424438194372      4.00704341773798     -1.00283956693275
  H   -4.15458484534957     -2.78311265673086      0.01491825520379
  H   -2.72049569615172     -3.72499589389042     -0.02760387563490
  H   2.20698343827631     -2.79724903051655     -0.20790721333826
  H   0.47731246625065     -2.40750493134612     -0.13939429243060
