30
Coordinates from ORCA-job ./opt_b97-3c_parallel
  N   4.68354792254413      1.72262513300145     -0.48980656299220
  C   3.67981134143736      1.15546725865907     -0.33812992094696
  C   2.42598080348288      0.51929890214538     -0.16815479724234
  C   2.47728552136281     -0.82880472868481      0.14778334631270
  C   1.47748641016826     -1.77874123298151      0.18171808167894
  C   1.89593700432612     -3.10758775925869      0.44036337651356
  N   2.19821424850987     -4.21196335904298      0.63989881054795
  C   0.09342341357555     -1.60696956823582     -0.13874819439147
  N   -0.61145473702438     -2.70055963686246     -0.38261079243208
  C   -0.63735482903340     -0.34558239114353     -0.10503980552433
  C   -0.07909855214922      0.98462603719915      0.03156056080741
  C   -0.99581111567220      2.04588036011832      0.35253038736387
  N   -0.52911607151051      3.33797494236232      0.66970347553767
  N   -2.31207213659363      1.94626164606714      0.36459669088227
  C   -2.84464088034300      0.76131993367020      0.06725571178080
  C   -4.17680926724877      0.34881603059007     -0.02663021497764
  C   -4.11443489063071     -1.02273943326086     -0.26588629640424
  N   -2.84482814747115     -1.49996942348685     -0.33133705490866
  C   -2.03498826996765     -0.42217504487566     -0.13901241428038
  C   1.27418965143778      1.34267105458920     -0.32751673252736
  N   1.49760875412825      2.56287089326939     -0.83917106782394
  H   3.47183958234696     -1.21151328834084      0.33219805706737
  H   -0.16985443171801     -3.60417315723513     -0.31711327630177
  H   -1.65354107003115     -2.60554057979252     -0.46353118196241
  H   -1.31994403429639      3.89843756447504      0.95383264890436
  H   0.18112486447027      3.34940175860797      1.38877482446201
  H   -5.05650565941038      0.95964030251833      0.07956589762106
  H   -4.94531380354861     -1.69901672297936     -0.40120323265676
  H   0.77540370031673      3.26867068211614     -0.75270228093279
  H   2.44284579714203      2.87482461839192     -0.98956968177565
