33
Coordinates from ORCA-job ./opt_b97-3c_parallel
  N   -4.53003568634680      2.10336583377410     -1.39887564808129
  C   -3.59029329304040      1.55795568450959     -0.98153919785605
  C   -2.48939594235917      0.84307565991736     -0.45856344780155
  C   -1.34787536413675      1.58501999380767     -0.16167861685945
  C   -0.06051788944425      1.22298089597766      0.19089762955900
  C   0.83009245397590      2.31567810259887      0.47754254081365
  N   0.29549711318660      3.56087646178849      0.76193319439482
  C   2.20294610159739      2.16315307817665      0.39185962441620
  C   2.73646239071894      0.94046245752981      0.02923787301607
  N   4.03002782470973      0.65085972930122     -0.15860662636396
  C   4.04804367155524     -0.67699456751351     -0.45122085510766
  N   5.23213279754181     -1.28184651992047     -0.70787312906183
  C   2.77443016141501     -1.28369080381893     -0.41342453706491
  C   1.87274629365525     -0.24710653195029     -0.11758658306047
  C   0.48556929609258     -0.12933217246684      0.08393913865804
  C   -0.30761723600853     -1.28927310723404      0.33232211060655
  N   0.36599641830712     -2.42959671648207      0.59888848983806
  C   -1.73283814071122     -1.40787506920396      0.36321301337234
  C   -2.23393324433729     -2.64818341695528      0.80398782498935
  N   -2.65741474384027     -3.67464635101005      1.15926408357730
  C   -2.71485726307460     -0.52329272740512     -0.14766993327509
  N   -3.96530668626797     -0.99532105227776     -0.31074497727403
  H   -1.48525815926617      2.65001869882242     -0.29952697797218
  H   -0.45925155895099      3.58002723935035      1.42620130149006
  H   0.97664268316083      4.27622126467431      0.95096835625334
  H   2.86724512989481      2.99299200557616      0.59756344776915
  H   5.23112328237705     -2.16551803014937     -1.18350699229281
  H   6.00277664698162     -0.66993160788140     -0.91434586914498
  H   2.56387440476300     -2.29506234938896     -0.71650497395940
  H   1.33611762698358     -2.35906240467877      0.86169142958534
  H   -0.13170595949801     -3.24712802276140      0.90597502753475
  H   -4.71208198538447     -0.38031298095907     -0.58200930370101
  H   -4.19497937344935     -1.94917738534657     -0.09701598529988
