25
Coordinates from ORCA-job ./opt_b97-3c_parallel
  N   -2.07895256484349     -3.16072813281097     -0.16101312000953
  C   -1.89838774395819     -2.01020442818872     -0.09293956621772
  C   -1.77340991108130     -0.62483776557255     -0.01890094126803
  C   -2.90545618577152      0.24365334253084     -0.04116959050505
  N   -4.18624502334068     -0.18164523882707     -0.03487981774259
  C   -2.46875105511074      1.58608257430804     -0.02707000864875
  C   -1.08273593100590      1.57739143309385     -0.00786238716798
  N   -0.25981740417805      2.63834199721257      0.01753457950169
  C   1.03226510759399      2.39212080506509      0.04787355278964
  C   1.63416043333653      1.10602513271908      0.04311268270438
  C   3.01794736072342      1.07226946614211      0.02399232815895
  C   3.88987979794387     -0.01311635287955     -0.07566695402763
  C   3.56036261201674     -1.34994517223661     -0.11417748252039
  N   2.39382416089573     -1.95934569424110      0.13960035554508
  C   1.21793559130033     -1.39761990049597      0.26197294612160
  C   0.75480878002493     -0.06781222462697      0.05614668908166
  C   -0.61039703369789      0.18752141518547      0.00819111070441
  H   -4.91735703891572      0.45991691086537     -0.27973290274807
  H   -4.37472753115392     -1.15389957238765     -0.20963978414343
  H   -3.09435958024227      2.46336437297946     -0.02144747490016
  H   1.68684221894351      3.25750625480230      0.05441537682023
  H   3.49515780365822      2.04629811057448      0.03653038879093
  H   4.94289268439244      0.22030781741750     -0.17394557130861
  H   4.36843262472723     -2.04382883630734     -0.32502858332100
  H   0.44489244974271     -2.09867069132166      0.55944312991037
