32
Coordinates from ORCA-job ./opt_b97-3c_parallel
  N   -3.84298076056914     -2.65575276721615      0.90248952994878
  C   -3.21044755069402     -1.73082989331275      0.58418295822826
  C   -2.45798890089944     -0.60685949343167      0.18973124269252
  C   -3.19288321206533      0.41597306745015     -0.47781838891424
  N   -4.44884782617581      0.11165849346546     -0.88098815391834
  C   -2.75195406883059      1.72244786838428     -0.70564844582881
  C   -1.55392526007250      2.29734767337334     -0.35165664238405
  C   -0.35353979867020      1.74670962417832      0.09100758767019
  C   0.74459257857920      2.65248449516154      0.29311552823546
  N   0.50516203578776      3.99831918062283      0.46408390287163
  N   2.02170242131209      2.30132322160189      0.26300577239152
  C   2.29531865695797      1.01746338360524      0.04381797011171
  N   3.53681581597920      0.53213126757908     -0.08903916711470
  C   3.38638965847872     -0.80198155429196     -0.22885888475926
  N   4.45250894879968     -1.59858883458704     -0.40910709877225
  C   2.02863710329629     -1.23735539148893     -0.14826148853737
  C   1.63038390512881     -2.53945083643437     -0.43053241726984
  N   1.34383030493523     -3.64971146522559     -0.65289503995695
  C   1.27384940908230     -0.03727730187583      0.01556413749466
  C   -0.05982940297321      0.32690948157143      0.14151777066209
  C   -1.07340729042047     -0.65558990273677      0.47558036866976
  N   -0.63452913195713     -1.72099486536922      1.15509134253854
  H   -5.06643057536678      0.84337527497541     -1.17789905219976
  H   -4.86967475645392     -0.77037569276929     -0.64731940745068
  H   -3.46816071274875      2.37862173134625     -1.18484769463561
  H   -1.50731343909697      3.36152709582695     -0.54564361351962
  H   -0.24767487980045      4.25179258625307      1.07981251722164
  H   1.35396996697997      4.51082045202382      0.64219663329195
  H   4.31663683877067     -2.55137133349507     -0.69621460536584
  H   5.32489562042705     -1.15904458438357     -0.64212461120109
  H   -1.20363086786592     -2.54022375611130      1.28449964165719
  H   0.34170669445469     -1.80990262543046      1.37087082895716
