29
Coordinates from ORCA-job ./opt_b97-3c_parallel
  N   -5.18590762690271     -0.75969453359906     -0.56825505957480
  C   -4.17012614218506     -0.23615113281448     -0.35612581796893
  C   -2.91427397316287      0.37093104522275     -0.09745115319248
  C   -2.96371426809063      1.73360134725976      0.14565137878865
  C   -1.92547962003926      2.60129540049460      0.42466269085081
  C   -0.57661991373001      2.33841199471339      0.35536668046099
  C   0.14362314211225      1.16914170981797      0.07309988276234
  C   1.56040594453663      1.37889094927191     -0.10946587420410
  N   2.03707694704246      2.66951669171824     -0.26811656462825
  C   2.45741898855151      0.31263417528319     -0.06256673864456
  C   3.83718129082011      0.55084125738142     -0.24682947646394
  N   4.96543487717172      0.77998821761017     -0.40467487395604
  C   1.97689455994964     -0.99330561909397      0.11441702132280
  C   2.58445361383227     -2.24097116193580      0.17108796407151
  C   1.52949422768235     -3.16484081498612      0.22143959124887
  N   0.31921618141115     -2.58163481695847      0.19701906773592
  C   0.54926112909599     -1.22772817171997      0.13904791148635
  C   -0.38394135103299     -0.18758977277006      0.08113843701323
  C   -1.79914275179828     -0.53334305283033     -0.00585819304787
  N   -2.08792108957640     -1.82663327341666     -0.04138688154768
  H   -3.95722286652704      2.16305670326657      0.13192591047463
  H   -2.20465535703534      3.61499893265908      0.67837047596470
  H   0.05072725624012      3.19259281293987      0.57045769135677
  H   3.03489355188764      2.73143432727722     -0.39726090148536
  H   1.54950754382880      3.23201739648890     -0.94520772943818
  H   3.63983069038907     -2.45451878673567      0.16397106132800
  H   1.61042969921302     -4.24041885602169      0.27534785471843
  H   -3.04527643550485     -2.13073359783349     -0.11549490164848
  H   -1.29859675078104     -2.50951894568925      0.04177562951646
