26
Coordinates from ORCA-job ./opt_b97-3c_parallel
  N   -4.57391605695832     -2.23245275611173     -0.00104160368878
  C   -3.51608932244139     -1.74862405954253     -0.00106038353218
  C   -2.25893753360193     -1.10476502738333     -0.00087473914354
  C   -1.13959200749453     -1.95087121771663     -0.00184771430435
  N   0.14609177707975     -1.73485875155936     -0.00156912325595
  C   0.81662887178733     -0.56752264830095     -0.00054795106952
  C   0.27047195252960      0.81511341327104     -0.00025669964330
  C   1.18773600955559      1.88785955557506     -0.00007620945499
  C   2.55801092162388      1.72304528370657      0.00037109491806
  C   3.08985373362099      0.44302023249904      0.00058348084691
  C   4.38347490365230     -0.09825194798543      0.00087792595658
  N   4.35691270744780     -1.46222406062300      0.00063468696774
  C   3.06912416556857     -1.81827266453780      0.00014827905712
  C   2.20593813446690     -0.68013616120939      0.00015050144553
  C   -1.10997045763385      1.14311376109635      0.00008046868292
  C   -1.42752655563875      2.52385817346067      0.00071659713823
  N   -1.77766397401077      3.63276925947544      0.00101903918931
  C   -2.27307922808484      0.31389283186587      0.00007844484763
  N   -3.47553865508293      0.91482673539002      0.00093705218131
  H   -1.39852741437576     -3.00663450318667     -0.00292224434695
  H   0.80029274624635      2.89492368628568     -0.00011610120251
  H   3.19669719556032      2.59702286989195      0.00053952465209
  H   5.32355413902985      0.43304335292888      0.00122536597462
  H   2.76973711934105     -2.85408328467860     -0.00017094634632
  H   -4.31920322787264      0.36847185221596      0.00073937578093
  H   -3.56388217471458      1.91577312177289      0.00134727024939
