24
Coordinates from ORCA-job ./opt_b97-3c_parallel
  N   -5.41052697309481      0.52789374670751     -0.25357775991687
  C   -4.33113218522157      0.09980789239232     -0.18068613041471
  C   -3.02796676840781     -0.40112151401692     -0.09350623589781
  C   -2.62254227824613     -1.76274008409803     -0.02197112638149
  N   -1.29848856129716     -1.92081045283842      0.05884203346218
  C   -0.78430204082234     -0.66018390007119      0.04461602658050
  C   -1.83354908211002      0.33623228702272     -0.04877834941298
  C   -1.51117499188437      1.68991311959932     -0.05206574827281
  C   -0.18683178808277      2.06390517333759      0.03371588724167
  C   0.86489573944489      1.12383617896780      0.08945245657071
  C   2.17093379546268      1.64068836898146      0.18682099975586
  N   3.36003181630775      1.08705992708485      0.12664711212769
  C   3.59732529762610     -0.22843498827458      0.00269633191986
  N   4.85667017740340     -0.53181473894176     -0.33461390583151
  N   2.82509626775945     -1.32084287865938      0.22545289307056
  C   1.52265763378324     -1.31687661761904      0.27298900460687
  C   0.56110926786909     -0.28552588172509      0.10058099952305
  H   -3.28566624766364     -2.61520354977152     -0.02786834965908
  H   -2.28825331345787      2.44094145440017     -0.10833196098111
  H   0.06737423623507      3.11495946752873      0.04856582386519
  H   2.21768846779119      2.72072587013783      0.30350744111824
  H   5.13582113240765     -1.49441542913743     -0.38773462835404
  H   5.52434578531451      0.20456394174676     -0.47340541685846
  H   1.08209420638329     -2.29144693925363      0.45713591313863
