27
Coordinates from ORCA-job ./opt_b97-3c_parallel
  N   5.63928716015448      1.25436491165509     -0.42890296796614
  C   4.58412309553578      0.78030050794924     -0.31585473074043
  C   3.30901382502368      0.20279552916186     -0.17816706428861
  C   3.04987324365105     -1.18683093151318     -0.01985514401110
  C   1.66938730775454     -1.34174731114932      0.07499602140536
  C   0.84819072268169     -2.45071700745713      0.29287146684766
  N   -0.46321840890354     -2.38342503872728      0.35066310937378
  C   -1.08581879650196     -1.16842208762368      0.20007476092817
  C   -2.45306359058459     -1.26925036200292      0.10467168089105
  C   -3.45397951816212     -0.28809397062535     -0.10443591288052
  N   -4.72774766533348     -0.77777071940867     -0.24157540548846
  C   -3.27062809158314      1.07910564788628     -0.11834744772475
  C   -2.06653723146997      1.77665150327619      0.10566498138777
  N   -2.17131560721891      3.13779667095652      0.22521787327534
  N   -0.81799300199875      1.34430738494475      0.13461552326458
  C   -0.32806027218293      0.10642673492496      0.09066358241431
  C   1.06042486726486     -0.04036242768335     -0.02206158285769
  C   2.09330805760673      0.90392522372622     -0.17002437962976
  H   3.79846977265472     -1.96105434990084      0.02296207045876
  H   1.27972183704329     -3.43901989194345      0.42310328842080
  H   -2.80263479431005     -2.29234619162002      0.17156467223499
  H   -4.83447529298488     -1.73996109003674     -0.50755424936832
  H   -5.43447905042030     -0.16611294089219     -0.60855020064850
  H   -4.15244590033812      1.68941938695885     -0.27727832872869
  H   -3.02973952351364      3.53637414444018      0.55936678009743
  H   -1.32644058171292      3.60533908560692      0.50513608155170
  H   1.97780246234847      1.96945289579704     -0.26741426111875
