26
Coordinates from ORCA-job ./opt_b97-3c_parallel
  N   -4.67618480535181      2.08745910825824     -0.01077216684574
  C   -3.89189798748470      1.23077059997430     -0.00807035765620
  C   -2.89731814183560      0.21744243096774     -0.00483618938475
  C   -3.39356476204049     -1.07678383747850     -0.00068624885534
  N   -2.79536146336879     -2.26300483999400      0.00329737943092
  C   -1.49575557312344     -2.45063740342048      0.00372723300644
  C   -0.36799423054720     -1.59624724757842      0.00055482072372
  C   0.86202608943682     -2.30743487991134      0.00238133244371
  C   2.08905180619611     -1.69734534229069      0.00006158250072
  C   2.13240901589376     -0.30810901823783     -0.00421470364561
  C   3.17388802538579      0.63846979976190     -0.00744523924995
  C   4.54961087036092      0.37838147613841     -0.00713767915238
  N   5.68883554617895      0.14643224434475     -0.00686049728956
  C   2.53584721594383      1.89872068691136     -0.01102470938521
  N   1.20299649451915      1.79830966148916     -0.01026869490900
  C   0.91040591602820      0.45622169001549     -0.00615526028297
  C   -0.35378858659275     -0.15242534023299     -0.00394877710485
  C   -1.53840782806798      0.68498618760862     -0.00628195692567
  N   -1.35268605350318      1.99477833371283     -0.01019421021589
  H   -4.47682034188006     -1.14144682728331     -0.00052065022093
  H   -1.23282846347728     -3.50470616271766      0.00728115315878
  H   0.81323213318352     -3.38669196903192      0.00577085259856
  H   2.99913942830864     -2.28189232212197      0.00155124282939
  H   3.02282631997192      2.86139742554852     -0.01407347714014
  H   -2.14027439549766      2.62330264601960     -0.01203977702343
  H   -0.37407062323669      2.35005723884795     -0.01146429010464
