29
Coordinates from ORCA-job ./opt_b97-3c_parallel
  N   4.50557707182348      2.52815028875998      0.64640460067844
  C   3.53674333405445      1.92652463773808      0.41843070548732
  C   2.39349946748469      1.13727202332465      0.15633167875492
  C   1.24069560813455      1.81997678679242     -0.19057132377051
  C   -0.06447311335673      1.38928230034906     -0.39306223817756
  C   -0.91685891588297      2.38504567832811     -0.90832318152976
  N   -1.62950142658479      3.20601223069049     -1.32792327926053
  C   -0.62969564399210      0.08655767807356     -0.15936784707050
  C   0.16865344362392     -1.13175453259179     -0.26170485970650
  N   -0.40627485016063     -2.33606390750868     -0.45514167697297
  C   -1.71857660404618     -2.48755815709980     -0.36136037885798
  C   -2.54097609124386     -1.43872005721790     -0.01583115040043
  C   -3.90489910087911     -1.32956615932501      0.32888014286832
  N   -4.24356330141560     -0.08545373281084      0.65906519798429
  C   -3.12667954006682      0.68405488630160      0.50720233683489
  N   -3.19541149133532      1.96262526319214      0.86990090458125
  C   -1.98796149542167     -0.11967789857910      0.07750818939213
  C   1.58362713588164     -1.23959201710784     -0.13671695093624
  C   2.07225170952606     -2.57002477255626     -0.21093653557728
  N   2.65568851072106     -3.57599030701904     -0.23195138399318
  C   2.58252151666102     -0.28029514891595      0.16800070790730
  N   3.81938273898621     -0.72193822002703      0.44354561754383
  H   1.38087458827803      2.88531716540654     -0.31910486816487
  H   -2.10179602032422     -3.48567987936007     -0.54119247194506
  H   -4.63433656420183     -2.12583509352135      0.35685963704699
  H   -4.11501801147408      2.28238550167892      1.13134530618177
  H   -2.57465809941492      2.65387219525223      0.47548568937072
  H   4.57470230933721     -0.07591881456951      0.59381672722841
  H   4.03480437008848     -1.70404851147753      0.40334993590281
