28
Coordinates from ORCA-job ./opt_b97-3c_parallel
  N   -5.96741549653028     -1.53766973237452      0.01548654613141
  C   -4.91971633868234     -1.03217223194601      0.01085969704794
  C   -3.64436407963594     -0.42337762017985      0.00545051926557
  C   -3.58362600840929      0.98570763483758      0.00601646979108
  C   -2.49167238382998      1.80321456098666      0.00073555875972
  C   -1.10336302106090      1.48736483726616     -0.00553586346945
  N   -0.30128009452386      2.56634834226929     -0.01135189012085
  C   1.03231307109631      2.43659520468762     -0.01364475852184
  C   1.64604841227643      1.21327725991165     -0.00777656838135
  C   3.00963640063916      0.77822197555789     -0.00494836474820
  N   4.10205230206427      1.55460107911779     -0.03453069440664
  C   3.01665841274476     -0.63747669620434     -0.00666931638757
  C   4.15755221774232     -1.44018804819374      0.00213346023488
  N   5.11739831687226     -2.09984236160471      0.01169498256622
  C   1.66840908562605     -1.09722787213098     -0.00626315995243
  N   1.23686967210474     -2.35056813581470     -0.00293123103074
  C   0.81164293523692      0.04569867699087     -0.00450330998180
  C   -0.57154244561158      0.12626407941003     -0.00500966067398
  N   -1.24461953184581     -1.07030140627744     -0.00509458573537
  C   -2.53650486604484     -1.28876523149627     -0.00123477888941
  H   -4.54339945784432      1.48687587438774      0.01070241783987
  H   -2.67721210878003      2.86803178924526      0.00106046231881
  H   1.58856098609470      3.36862507581995     -0.02315836124009
  H   5.01349940976480      1.14490701227709      0.07040447286634
  H   4.03112077440395      2.54477989445181      0.10373531419670
  H   0.22595068363944     -2.46507840747931     -0.00477318296926
  H   1.86783753518958     -3.13274561252740     -0.00809637943571
  H   -2.79278019929652     -2.34504486968813     -0.00290542187388
