28
Coordinates from ORCA-job ./opt_b97-3c_parallel
  N   1.11491148223349     -4.39637423079190      0.17962638052027
  C   1.05493405316153     -3.23579120461886      0.13521500722915
  C   1.00388324393970     -1.82460081609229      0.08426981165292
  C   2.22968181748275     -1.13740770896518      0.08742898118170
  C   2.22958755881890      0.22822716599341      0.02473561275613
  C   3.27457993570005      1.18818143082026     -0.01788448692429
  C   2.71838478322482      2.45224871349086     -0.09104743508433
  C   1.30244686142210      2.32750097861923     -0.08512788984931
  N   0.39741029240865      3.31858048755813     -0.11504037166719
  C   0.97616194929100      0.93782356045017     -0.01506022572727
  C   -0.26886341445067      0.30804345811726      0.00109557085813
  N   -1.34249212848811      1.13398589293884      0.03128333510611
  C   -2.64172718832293      0.87942047975522      0.00258065388865
  N   -3.42605135079353      2.00986099082470      0.07569919513144
  C   -3.32364473967307     -0.34334127255108     -0.14136693187692
  C   -2.74297071756406     -1.59087529669506     -0.16969697767319
  C   -1.41156852367741     -1.95623513348389     -0.08120824671464
  C   -0.25823364108658     -1.16491795956982      0.01242764722071
  H   3.15009094631692     -1.70350518595235      0.12778913262360
  H   4.32926272004831      0.96152018911021     -0.00114700751810
  H   3.25640703169655      3.38643864027020     -0.13871784678439
  H   -0.56269102530597      3.01376266880829     -0.21917476978389
  H   0.66810413646043      4.24969577949005     -0.37514897260836
  H   -4.38229447888485      1.88968440125767      0.35935800429447
  H   -2.97424093628218      2.81332978617353      0.47704006514638
  H   -4.40305136379149     -0.29567191807618     -0.21058019307766
  H   -3.43453447408061     -2.42052203291775     -0.26047270543695
  H   -1.23447887710362     -3.02278755176463     -0.10177286788314
