23
Coordinates from ORCA-job ./opt_b97-3c_parallel
  N   -3.15415662613938     -2.07917329793338      0.42337486397906
  C   -2.43739704156266     -0.97911880527906      0.08994016390061
  C   -1.03715461072065     -1.12396034680271      0.00283825582983
  C   -0.05164248744777     -0.16017833948973     -0.10726936609627
  C   -0.33462019310756      1.29724365033439     -0.02504713373920
  C   0.72875558908265      2.17559476374772      0.22273962271687
  C   2.04915230315497      1.75827309294879      0.27534506601098
  C   2.35880538813260      0.42523245316646      0.06390992473672
  C   3.55908193829322     -0.30951305590243      0.00122410910102
  N   3.32619001075865     -1.61329966914661     -0.25207024095757
  C   1.98309480434633     -1.75400773953474     -0.34451402666920
  C   1.31035641908620     -0.53219635696950     -0.15913228060665
  N   -1.52798179663201      1.87663941995851     -0.22659561114791
  C   -2.70949253520490      1.31189344787829     -0.37458181007003
  N   -3.19186932297161      0.09773428178636     -0.15163421853979
  H   -2.72898819758215     -2.98153252503042      0.51759648819720
  H   -4.15409285373083     -2.02209617512399      0.35628095939262
  H   -0.67760619912151     -2.14188974351750      0.09491920374109
  H   0.47514926019168      3.22138088754566      0.31085386513739
  H   2.83263616032349      2.48672134321703      0.44642272009583
  H   4.56562616326669      0.06095790542570      0.12887068275230
  H   1.55933534176907     -2.72128684332019     -0.57383105780350
  H   -3.47769720968423      2.01372001904141     -0.68836013076152
