30
Coordinates from ORCA-job ./opt_b97-3c_parallel
  N   -2.80236595501486      2.78659066929516     -1.60454996823378
  C   -1.88448594847877      2.32369026796434     -1.06324260766026
  C   -0.69870689443724      1.79906485738266     -0.49839154899410
  C   0.39714726261125      2.65782297674736     -0.39321127742094
  C   1.58661558459834      2.16579871510383      0.08571326004413
  C   2.82233790214539      2.76416972483782      0.41334461366812
  N   3.70646169492643      1.85238859587540      0.84883626793129
  C   3.09309188580881      0.64754804384076      0.77584921893791
  C   1.75922794243779      0.75770560695371      0.31630839801310
  C   0.72556881741764     -0.16586467471654      0.02497214876942
  C   1.01384651359664     -1.52514608553361     -0.20962810941508
  C   2.37034085562421     -1.89961443842181     -0.33326039147776
  N   3.43597193147679     -2.34239348078936     -0.48151735829452
  C   0.11867480902882     -2.62442812359314     -0.43980033054205
  N   0.65930845022889     -3.77314686722322     -0.91772348269586
  C   -1.24339010154006     -2.65081802329281     -0.17529444753035
  C   -2.09371363243932     -1.64114887367279      0.25802531637657
  N   -3.32753376027577     -2.01635513066722      0.66601643560148
  C   -1.80812960896285     -0.23908825844180      0.23832135813925
  C   -2.88450400730792      0.55807568852495      0.69274409759201
  N   -3.80734331010401      1.08201572702514      1.16960830711823
  C   -0.61579854431641      0.42336428238544     -0.12300093366093
  H   0.28133715673273      3.69565446665895     -0.67404017249514
  H   3.07598449113982      3.81277486981894      0.36367105819629
  H   3.62334641196655     -0.23525775095094      1.08727959445099
  H   1.65569070123450     -3.88688696610660     -0.98262016184886
  H   0.10642820422285     -4.60836606464704     -0.94925843818058
  H   -1.71047644688593     -3.62231232933815     -0.28591366382983
  H   -3.59611935281066     -2.98118114198804      0.65224623331922
  H   -4.03927015612153     -1.33787807713403      0.87314744662357
