29
Coordinates from ORCA-job ./opt_b97-3c_parallel
  N   -0.99167246223703     -3.04122536618989      0.16689008264166
  C   -0.16737815731964     -1.87872209982666      0.10602432036134
  C   1.20655266736852     -2.05215416125410      0.10828929269665
  C   2.06426397571594     -0.97686879362521      0.02374501817593
  C   3.46495822462000     -0.90265872151788      0.07467109313636
  C   3.80630567164861      0.44811483154103      0.08777934040709
  C   2.64944662659063      1.24108749501182      0.01702544666856
  C   1.52280003131461      0.38137555377269     -0.03030453289981
  C   0.11942732465692      0.57119186180682     -0.04664754716287
  C   -0.40440927357610      1.91280600356252     -0.16062512750355
  N   0.42676820556842      2.87137063707092     -0.63608711618062
  C   -1.63175926334934      2.36736086668444      0.34536398441729
  C   -2.73783242331939      1.61834494592089      0.66519657735692
  N   -3.02259353525503      0.37850957577403      0.30729466099737
  C   -2.17797158520329     -0.49050241937294     -0.22944378381447
  N   -2.76516240762723     -1.41676146431241     -1.02092447708198
  C   -0.74169285588137     -0.58886893359904     -0.00421741015223
  H   -1.64589042227301     -3.00364071107225      0.93798489536033
  H   -0.42440691340148     -3.86755541572260      0.28175027003670
  H   1.61074363966909     -3.05516653383176      0.20336422240293
  H   4.14022471409485     -1.74204821256745      0.13237852500020
  H   4.81105117044854      0.84092318067545      0.14862216329110
  H   2.66521400194624      2.31255964111283      0.11339417730432
  H   1.24588044877593      2.58328611114256     -1.14570306740465
  H   0.03053081613785      3.75849485076158     -0.88716474024274
  H   -1.71571339252415      3.43679847754173      0.50293174134502
  H   -3.54359823482897      2.12687492355181      1.18613804448086
  H   -3.77025543110511     -1.44630309346370     -0.96824601917273
  H   -2.28152659285505     -2.29906922307524     -1.14742493346497
