31
Coordinates from ORCA-job ./opt_b97-3c_parallel
  N   -5.34669362536093     -2.55570051182859     -0.86380818968611
  C   -4.37263741422887     -1.95379069929929     -0.65491187868536
  C   -3.25426273238194     -1.15037720381286     -0.40184697825657
  C   -1.91502597618272     -1.53098374377462     -0.31614023558557
  C   -1.14114014527420     -0.37043443445916     -0.10605356223662
  C   -2.03567139759634      0.74961326295555     -0.02846660699858
  C   -1.50808776317210      1.98029562827089      0.39311233359243
  N   -2.31300354979125      3.02036162831374      0.75469313285945
  N   -0.19760480926955      2.21119140468997      0.41716875592446
  C   0.67164969308732      1.23240127480494      0.12952073691723
  N   1.88853571900659      1.63782491772997     -0.18304786987029
  C   2.99680678975754      0.93184653654383     -0.38715292849705
  N   3.96546438223456      1.63469892915311     -1.01314132496789
  C   3.29446307795401     -0.39494758149745      0.01948452765290
  C   4.63272383755555     -0.81167627519444     -0.02511340001122
  N   5.74532754299693     -1.15966055782891     -0.06351549888419
  C   2.31364771657616     -1.33711942328710      0.43982223047560
  N   2.74840450708774     -2.50207502585120      0.97320530213431
  N   0.99511857756900     -1.25932757072032      0.33198597354378
  C   0.22988968240406     -0.19962438873677      0.10462433689079
  C   -3.33913793140130      0.27703591265435     -0.22158414240904
  N   -4.50187223352469      0.99306294908936     -0.19997378639191
  H   -1.53734646758297     -2.53335473705671     -0.41990458736414
  H   -1.82552311856939      3.78875882106680      1.18712182133568
  H   -3.20367877857427      2.79269150748110      1.16534799421655
  H   3.81793321517865      2.62197027080853     -1.11733104239203
  H   4.89152815798332      1.26574288250443     -1.13359376621721
  H   2.06911641216154     -3.23190379627139      1.08720263238727
  H   3.72233101355667     -2.74652520354301      0.97555804903874
  H   -5.32469152296071      0.49597765749257     -0.50420892810075
  H   -4.45436125913743      1.92985845970131     -0.56754088501496
