31
Coordinates from ORCA-job ./opt_b97-3c_parallel
  N   5.38296290101139      0.59953539714209     -0.19621982790389
  C   4.23546574590239      0.39046703351094     -0.13832722633642
  C   2.85832218162431      0.14070537522430     -0.07787205386894
  C   1.97829549885507      1.22087487067795     -0.34284111131604
  N   2.55668981471994      2.43033817077183     -0.63397065189042
  C   0.58939462571199      1.20395969934546     -0.25415275569088
  C   -0.31086442519970      0.14435365299635     -0.07007037328536
  C   0.07264965453322     -1.27880835468210     -0.15480819781620
  N   -0.82290658920248     -2.22132745890647     -0.49324540839193
  C   -2.12317015659414     -1.92177843409870     -0.54382456035591
  C   -2.61541081629847     -0.69298595664709     -0.18108225062668
  C   -3.93673248096864     -0.15219211598726     -0.04951675935069
  N   -5.09119090417389     -0.85536888491009     -0.18698872102008
  C   -3.82623733368762      1.19183558758408      0.32346052744069
  C   -2.46083944714497      1.51736112313970      0.41291004557626
  N   -1.96492764036184      2.74154689929113      0.75086596087634
  C   -1.68361580758397      0.36050910292772      0.08635832382587
  N   1.27437468940478     -1.75670181623251      0.16206691868371
  C   2.44011405489421     -1.16606443693571      0.32206974471815
  N   3.37419027566175     -1.96063541486466      0.90972884823726
  H   3.52493153571972      2.44085704836349     -0.90623451100622
  H   1.98494686595454      3.11312754272130     -1.09692684480037
  H   0.12891095820850      2.16143046072495     -0.46303368424458
  H   -2.77400408351870     -2.73326687050845     -0.85983828999009
  H   -5.94114951991949     -0.34062867367737     -0.33349354845978
  H   -5.05149240920565     -1.73360936175773     -0.67215693603538
  H   -4.64648631111839      1.86049383464024      0.53567126296936
  H   -1.02954666664295      2.75152523184778      1.12612363802395
  H   -2.59522151420799      3.35761584197769      1.23705321601114
  H   4.34075335044530     -1.68820677423537      0.92661263702206
  H   3.16117432318183     -2.94140143014329      0.93963807660458
