28
Coordinates from ORCA-job ./opt_b97-3c_parallel
  N   4.02938295513707      0.35395359921682      0.20056712491018
  C   2.81062704075876     -0.27461715111548      0.05983473508204
  C   2.61234607179062     -1.65837075777231     -0.11071636335354
  C   1.24093623440950     -1.90516249482597     -0.19005843617715
  N   0.66552159088451     -3.13591390164608     -0.33938454163128
  C   0.53726526053548     -0.65200979924415     -0.06530612539874
  C   1.55374717222437      0.36942899594035      0.03321255465978
  C   1.18412668404134      1.70685214696991      0.05890351519109
  N   2.12729565566915      2.71884300867189      0.10568399802765
  C   -0.18278140288479      2.02135499281387      0.02212364552028
  C   -1.18583686246355      1.06592355803486     -0.06609276541010
  N   -2.42687430365062      1.54757708536869     -0.32556353800592
  C   -3.58381634800723      0.92379418775521     -0.32768994511792
  N   -4.00547810803999     -0.27391280316120      0.08380728828104
  C   -3.15585416574558     -1.24833136614798      0.41568780271143
  C   -1.78446421391386     -1.35156965060687      0.32544203904696
  C   -0.81801240685496     -0.35955373211924      0.01694768427483
  H   4.02126367639840      1.14345524090601      0.82845190872895
  H   4.79666713401552     -0.26527462461393      0.40600941738929
  H   3.39088421747043     -2.40529712892588     -0.15213537561709
  H   1.26319540839062     -3.85337803012590     -0.71517269239660
  H   -0.25897282708180     -3.14712982506804     -0.73995620230700
  H   2.95643708709790      2.54592750631842     -0.44123932471082
  H   1.75620638978965      3.63759572061500     -0.07432958305746
  H   -0.49448271742021      3.05494058199164     -0.04168882198254
  H   -4.39403792545308      1.54600759929172     -0.70308256703325
  H   -3.65357031942319     -2.13840552168144      0.79571821741077
  H   -1.39312842117430     -2.29733964864010      0.67525815066516
