34
Coordinates from ORCA-job ./opt_b97-3c_parallel
  N   -4.70440098356853      2.24301418401741      0.08341017990545
  C   -3.66987992223387      1.70763832701198      0.05687269422059
  C   -2.41377167497015      1.07329650479262      0.02504650651569
  C   -2.41500800492287     -0.28006952610077     -0.41748418500545
  N   -3.56996914037931     -0.73137703098274     -0.94728874734201
  C   -1.34426215593023     -1.19981953555520     -0.30843846896433
  C   -1.64481513788914     -2.47836965728404     -0.82983590251555
  N   -1.98237122306547     -3.46429383676721     -1.34838269113488
  C   -0.00492983731268     -0.99928796306180      0.13809441843146
  C   0.75478121318035     -2.11756336182325      0.55219797186943
  C   0.12688185679557     -3.27757611827032      1.06072467795457
  N   -0.32366353551800     -4.22504803203486      1.55981087650183
  C   2.16324676195984     -2.11078834184432      0.51793301120897
  C   2.80642530624934     -1.00186354832058      0.05335815499112
  C   4.18321266547037     -0.77689132453591     -0.25266578205307
  C   4.32033242395704      0.48223144863693     -0.76848178087320
  C   3.03922456330613      1.12312362150174     -0.77262207644231
  N   2.84181808107753      2.31624346568324     -1.34275618927161
  C   2.07231704302552      0.20251574473977     -0.22940162325023
  C   0.69192257389444      0.27988680421910      0.03105556327157
  C   0.06782216616165      1.52367328382932      0.33435027890792
  C   0.92241883492147      2.54119731318153      0.78873519024581
  N   1.57987049929204      3.43025895958701      1.16104023262895
  C   -1.31795057922360      1.87053214389146      0.41716244037373
  N   -1.60355044042573      3.11378999525889      0.86022905933047
  H   -4.38557127727410     -0.14691543262900     -0.98138353010061
  H   -3.68408042810841     -1.70562729517424     -1.16751031843046
  H   2.70136739242735     -3.00150928912320      0.80891046373798
  H   4.97263583204155     -1.49883958898541     -0.11377247374084
  H   5.22592060308458      0.93438369044245     -1.14108199818465
  H   2.02157843966283      2.86047365491195     -1.14893686588267
  H   3.64408342918828      2.84539650602284     -1.63642090882882
  H   -2.55544119385319      3.40903644756730      0.98325459813196
  H   -0.88012511082061      3.72162601469270      1.19973465779396
