30
Coordinates from ORCA-job ./opt_b97-3c_parallel
  N   5.51845713945348     -0.63226134649823     -0.92396677804494
  C   4.50450931142255     -0.15726687475015     -0.60543145781439
  C   3.24764866150742      0.33838534348761     -0.24246700851955
  C   2.92115285689400      1.63034245330029      0.19029429252088
  C   1.54287971434930      1.68917942257188      0.39746757029018
  C   0.71220445283351      2.73930075559203      0.76071582696586
  N   -0.60170362758710      2.65716637394309      0.71596221685352
  C   -1.19041372247890      1.48456346469340      0.34333098581796
  C   -2.53611017700660      1.60509179312662      0.05038150737698
  C   -3.44285955510912      0.65689650638546     -0.45968567842376
  N   -4.61862518902283      1.14719255748187     -0.93962783454412
  N   -3.37538612023772     -0.66883848565509     -0.48764755853580
  C   -2.39195332358431     -1.41214740960532      0.00306562390426
  N   -2.72679998480599     -2.71685710097052      0.11702480845160
  C   -1.05034538274406     -1.04351158419626      0.34960769982623
  C   -0.29102036190300     -2.08074818047986      0.89984580307224
  N   0.30945750275584     -2.97886045330359      1.34459594738860
  C   -0.42069182546390      0.23325730595275      0.22549648822111
  C   0.96083307686934      0.39653612882743      0.12369266269596
  C   2.05893746631365     -0.45368600783977     -0.28417246539019
  N   2.04328773522902     -1.70390473650436     -0.77622219086350
  H   3.62341966006288      2.43727366164391      0.32335145755504
  H   1.12665718956105      3.69559342981243      1.06425652358972
  H   -2.90453498719466      2.61777496845949      0.14681707749752
  H   -4.69281159573630      2.11405628491248     -1.19486229015811
  H   -5.22572680212668      0.49616534431331     -1.40441688584471
  H   -2.10708395805781     -3.40054544565096      0.51090650658717
  H   -3.68062178371463     -2.96551530488780     -0.06724816996101
  H   2.94198488315537     -2.10128211872029     -1.00423160690101
  H   1.37519842926587     -2.37276374164122     -0.42587934631310
