29
Coordinates from ORCA-job ./opt_b97-3c_parallel
  N   5.30312501543629     -0.50631978347308      0.17960045111039
  C   4.14807753511002     -0.34183191006230      0.15051331189990
  C   2.76007947169496     -0.14870358635279      0.10287201456224
  C   1.92970515052765     -1.29372610563166      0.24323423959345
  N   2.55676351013326     -2.47685012098608      0.52078967947973
  C   0.54438538425819     -1.32926632420559      0.12643900997841
  C   -0.40552806494607     -0.31152455052685      0.01535698326649
  C   -0.09517276903499      1.12652308828160      0.18701259181641
  N   -1.05508942046454      2.01736343864790      0.52076580527875
  C   -2.33069430132476      1.64919809575802      0.49841897848341
  C   -2.75371426015679      0.40158923083680      0.09060412936783
  C   -4.03529018460910     -0.20201756555079     -0.06047303095958
  N   -5.24085250444601      0.41975918888002      0.03679327377436
  C   -3.82982369072706     -1.55933786408817     -0.40962900628842
  C   -2.46409438004292     -1.80399490333906     -0.45847420920944
  C   -1.76484537018391     -0.60749632393132     -0.15678011574991
  N   1.08872429542278      1.68044097874822     -0.01979916115296
  C   2.29246623567266      1.16098816769763     -0.19692885157605
  N   3.19201801867574      2.05529093056039     -0.67957639295778
  H   3.54815337544062     -2.55206193029362      0.37118622063397
  H   2.03856895781876     -3.32648302307961      0.39542730852017
  H   0.12341385549603     -2.32620519209013      0.18404291111077
  H   -3.03688138193733      2.41714846819766      0.80764570606245
  H   -5.28128094142490      1.31054359930859      0.49901808344518
  H   -6.05429087555051     -0.15363501022960      0.17338069909136
  H   -4.61159486975874     -2.27368670404372     -0.61783790287825
  H   -2.02076856335001     -2.75377667810139     -0.71574483177475
  H   4.17172427993436      1.83767804306857     -0.71552768899663
  H   2.91952709393115      3.02098972430393     -0.64624418433620
