28
Coordinates from ORCA-job ./opt_b97-3c_parallel
  N   -3.65080960025509      2.66723518047122     -0.01600903154755
  C   -2.89668090215093      1.77945350744129     -0.02973017940121
  C   -1.99184226119406      0.70176058931920     -0.04269442778077
  C   -2.53593888514734     -0.57603854166187      0.26858587776688
  N   -3.76395575701782     -0.62231183549855      0.83008933927099
  N   -2.02358519517235     -1.76473898833578     -0.00941937842421
  C   -0.77015125977616     -2.07156620436627     -0.26696477075053
  N   -0.60223694099782     -3.31731435710845     -0.76358424743877
  C   0.42169287754094     -1.30365167643866      0.00005502874079
  C   1.59889593968974     -2.03085209780197      0.30078412560255
  N   2.81156650754684     -1.52539522425949      0.45373559479244
  C   2.92100814692969     -0.20516636436127      0.26648453293866
  C   4.03719290216543      0.64099869041021      0.29452998244727
  C   3.54094656578323      1.91186571332109      0.02281096957486
  N   2.19307711187244      1.93779486850403     -0.17398754562699
  C   1.78225538001220      0.65472818149138     -0.02741807413270
  C   0.49430542021547      0.11446431728853     -0.12065071591880
  C   -0.63738834217552      1.01450793005778     -0.31565567696402
  N   -0.33034462064165      2.25783359848742     -0.67152106411000
  H   -4.31757262789610      0.20803808989847      0.94213212374390
  H   -4.23081553403969     -1.51045031594130      0.84541626171876
  H   0.25420778499493     -3.58217041684304     -1.21051225787053
  H   -1.42705113121413     -3.86068359788905     -0.94568052937469
  H   1.51288748895794     -3.09535811093861      0.48306287252490
  H   5.05858850730581      0.36054582074289      0.48655278942165
  H   4.10588670285803      2.82990853296009     -0.04638138361095
  H   -1.04806431163766      2.96437416841000     -0.68949895989927
  H   0.67453232954374      2.53307105854046     -0.61967151449275
