30
Coordinates from ORCA-job ./opt_b97-3c_parallel
  N   3.99590312742220      1.21772973054338      0.90933699374469
  C   2.81214715104596      0.88230480738298      0.30225401359812
  C   1.84916087464727      1.86411683006342      0.12648646368294
  C   0.50831820259708      1.70925206095697     -0.23282677924251
  N   -0.17308281789367      2.81585761220810     -0.56285867408971
  C   -0.26321077776547      0.47182678703685     -0.15185015417313
  C   0.31528112045200     -0.83578103617566     -0.05989504530343
  C   -0.51778438785487     -1.95229405982807      0.22923067910542
  N   0.04462423213233     -3.25601315513985      0.35596700952678
  C   -1.88842755191973     -1.81934720179287      0.35428452860997
  C   -2.49355730878238     -0.58799315385481      0.16054386579514
  C   -3.81703825678630     -0.11632855009345      0.19334711962180
  C   -3.72743532533068      1.25044846957383     -0.04632227663639
  N   -2.45204248270740      1.67676059530513     -0.22456759456952
  C   -1.66789338461385      0.56693376022237     -0.10062511697217
  C   1.70548625465335     -1.07789930829670     -0.43877174693282
  N   1.95858228734084     -2.16566920201869     -1.20524988868848
  N   2.77376544528866     -0.38078429530939     -0.12257696806589
  H   4.22017105240436      2.19207625961914      1.00223839263119
  H   4.77219090110088      0.61704829887234      0.69212597266977
  H   2.17557279835499      2.88716223962130      0.27918559536623
  H   0.28287113385158      3.70579303506992     -0.46010932193575
  H   -1.21350926913386      2.75677372927668     -0.53677219591968
  H   -0.66565918556117     -3.92139735011213      0.62149680312887
  H   0.78014075771332     -3.28958644041111      1.04967270710973
  H   -2.48376266577999     -2.69087939817847      0.60624967323850
  H   -4.71266261242393     -0.69075356046090      0.36554183884813
  H   -4.54250754256936      1.95737295474990     -0.10756153113690
  H   1.28495026647383     -2.92091461449563     -1.18022982968390
  H   2.92927607054391     -2.41918328263460     -1.28291898042694
