24
Coordinates from ORCA-job ./opt_b97-3c_parallel
  N   5.44900833349787     -0.87180824928728     -0.00187918380952
  C   4.31080368696480     -0.64076250517275     -0.00029587055474
  C   2.91891591019674     -0.37571944902630      0.00114145693216
  C   2.50496212751544      0.95338837890272     -0.00300159868356
  C   1.21953212894509      1.45574995107956     -0.00181482340120
  C   -0.02507597277197      0.81202606398525      0.00121727080942
  C   -1.19235179512529      1.63124112953189      0.00099434950077
  C   -1.06623544517009      3.04150098562490      0.00208915600524
  N   -0.97500840932517      4.19930376058810      0.00293014519214
  C   -2.48786485307799      1.09937670375980     -0.00121424634954
  C   -2.65774980744404     -0.26354196583142     -0.00287874622927
  C   -3.77260183645581     -1.12118247190645     -0.00439742148322
  N   -3.39356214602512     -2.41981753292516     -0.00347809393493
  C   -2.04757481095544     -2.44067695956898     -0.00114576987926
  C   -1.50662451996679     -1.13468404667000     -0.00101661918104
  C   -0.19796783084827     -0.65437815647457      0.00259261131926
  N   0.76607284964838     -1.60303583865589      0.00831526922113
  C   2.06410128217349     -1.50514027902981      0.00853447193889
  H   3.29397490699049      1.69379724951462     -0.00715297483912
  H   1.17112803553776      2.53645867037687     -0.00455555056629
  H   -3.33146855823532      1.77618561840696     -0.00154677071427
  H   -4.81659415220065     -0.84698460444918     -0.00601184010016
  H   -1.50148234111565     -3.36979660819349      0.00023718471783
  H   2.57705761524752     -2.46308773157938      0.01491656378929
