31
Coordinates from ORCA-job ./opt_b97-3c_parallel
  N   -5.57823548170687      0.56650486974177      0.10386332741400
  C   -4.41333855832321      0.56131723546007      0.10263626486004
  C   -3.00686693706898      0.48706848840549      0.08591527663021
  C   -2.29162753537887      1.68344099429179      0.14239280741767
  C   -0.94150433632155      1.92219829994347      0.09958860599951
  C   0.14567920189238      1.03220366627873      0.02048594095326
  C   1.44675407925035      1.58275766611868     -0.02317004537784
  C   1.62164196886325      2.97947796879723     -0.07263976369650
  N   1.85195592498578      4.11939341484562     -0.12495717840142
  C   2.64243179915416      0.79828849422742     -0.02318803208050
  N   3.85173961283149      1.41489576313359     -0.00980135566183
  C   2.49737504205420     -0.57861665636592      0.02736660831939
  C   3.43705271037497     -1.63232041144814      0.08311844414114
  C   2.76432383742556     -2.84577979494938      0.12939578507031
  C   1.37624100116931     -2.58725934843696      0.09503160612865
  N   0.37568012482459     -3.48175897699091      0.10235327516661
  C   1.18502185501236     -1.16169919197699      0.03223323154770
  C   0.00025547645598     -0.43052988451883      0.00813956579514
  N   -1.14396357004003     -1.15186065820706     -0.04247906191666
  C   -2.41869422223737     -0.81053098510018     -0.04290175634594
  N   -3.27818783759130     -1.86483314848068     -0.13870296936941
  H   -2.90836460796801      2.56995266282380      0.21793618148803
  H   -0.67475260801575      2.96919104309961      0.14290213933768
  H   4.66554675959514      0.87884153794577     -0.24490070692294
  H   3.90064334770896      2.39658775476257     -0.22209658069535
  H   4.51148990031546     -1.52779137659896      0.10639141732981
  H   3.21631702751223     -3.82358189737398      0.18228458273122
  H   0.54870735643535     -4.43770046578749      0.35547766621863
  H   -0.55068388887776     -3.08420510774900      0.19453538705552
  H   -4.25035021869179     -1.69659815656096     -0.33162590150028
  H   -2.89485084944009     -2.72634009543026     -0.48172470193584
