33
Coordinates from ORCA-job ./opt_b97-3c_parallel
  N   -5.17780669149107      0.20471170124375      0.71889131586044
  C   -4.03907688463076      0.31582850862626      0.51051942724906
  C   -2.65414221060720      0.39395237042309      0.22907782550673
  C   -2.05591054023564      1.62742479934164      0.41464865224669
  C   -0.81145012583295      2.04862828688363     -0.02630275545265
  C   -0.59244381337589      3.44597376917737     -0.07851454333769
  N   -0.38989803166873      4.58679345498739     -0.16530306406890
  C   0.21201182620492      1.21540559239269     -0.54707575209254
  N   1.12563219242103      1.77332456212011     -1.33839249257754
  C   0.39953303483135     -0.18531971434084     -0.19090140702214
  C   -0.67257819093219     -1.14873813647110     -0.19447781488651
  C   -0.33749480171722     -2.53508175490780     -0.07651202935038
  N   -1.35636067193880     -3.53924436241871     -0.04733205685392
  C   0.97402699717942     -2.94709834382466      0.02279491843543
  C   2.01531193750746     -2.03814891671105      0.08092915482564
  C   3.39175675323628     -2.21201260033768      0.29455264570856
  C   3.96242686444662     -0.95264364141523      0.41171307071813
  C   2.97378615555722      0.04520357246111      0.24387310086779
  C   3.21212668299783      1.40527112478620      0.44519209575607
  N   3.40039618221700      2.54710808298850      0.58955020263089
  C   1.72087868482846     -0.62184989585421      0.01556626116585
  C   -2.06554308471898     -0.78264993426747     -0.33854336771135
  N   -2.90279347307446     -1.63743289685019     -0.93480620974719
  H   -2.69081928356281      2.39712129922476      0.83017692948329
  H   1.93831776421112      1.24586396959549     -1.60565937686197
  H   1.20626277901278      2.77640199517447     -1.40312573303331
  H   -0.93910648466087     -4.45760291569388     -0.07936274439777
  H   -1.90855047742451     -3.48786959669399      0.80101308927519
  H   1.18470519045867     -4.00570274656348      0.12477885793376
  H   3.90104496506754     -3.15650325213746      0.39780259560701
  H   4.99668679135568     -0.73758624934067      0.62892368534417
  H   -2.58375124729023     -2.59662723236683     -1.07147783052244
  H   -3.89498238097099     -1.46580158533118     -0.89521269649827
