28
Coordinates from ORCA-job ./opt_b97-3c_parallel
  N   3.92508825004715      2.64202458900467      0.42761656253288
  C   3.35608613258008      1.64724813687931      0.23167410695157
  C   2.62147284842002      0.45501512047700      0.03121501335088
  C   3.33093315661581     -0.61215971149612     -0.54167270109331
  N   3.06640643433437     -1.89864355715337     -0.57994815935934
  C   1.92949942907530     -2.45889940848953     -0.17757105460813
  C   0.65906234577181     -1.93804423983563      0.04399379801498
  C   -0.37113414957083     -2.91925832280302      0.16026047845048
  N   -1.65672754327513     -2.67890064288429      0.19911772666100
  C   -2.03113600911606     -1.38922569937507      0.08187830073833
  C   -3.32266248926505     -0.89969767558078      0.04594357554777
  C   -3.24874448858797      0.50228579788301     -0.10496388601207
  N   -4.29332671015905      1.34746430797236     -0.20532673710078
  C   -1.88242123745174      0.91233481795899     -0.11696035882697
  C   -1.51986269781448      2.21775300916987     -0.43804016622239
  N   -1.27381264988660      3.33090409851955     -0.68916290714848
  C   -1.08111129643303     -0.26668872483866      0.00354205535587
  C   0.27691231960183     -0.53909878663548      0.08413298495491
  C   1.25041461759260      0.48700616715147      0.40564479256779
  N   0.81757594034992      1.55205911053899      1.07218207675672
  H   4.29963769184688     -0.34496507164367     -0.95295597479934
  H   1.99912529616090     -3.54006264436054     -0.09660616279780
  H   -0.07289044817117     -3.96192676558454      0.18087907533100
  H   -4.22098809886810     -1.49113288452251      0.10840694460800
  H   -5.20245320715938      0.98104040960754     -0.41928834413929
  H   -4.12424809337841      2.29983280136408     -0.48150595641770
  H   -0.15238287735274      1.64468862465678      1.31640587860604
  H   1.41063032129315      2.35096947501938      1.22842575219739
