26
Coordinates from ORCA-job ./opt_b97-3c_parallel
  N   -5.50894296134637     -0.71519622723068     -0.01316653992395
  C   -4.41358480285550     -0.32895322633961     -0.00959220583677
  C   -3.07274240369102      0.14321982551842     -0.00525049017023
  C   -2.89915913792278      1.52741071121557     -0.00235910835543
  C   -1.70859528233492      2.23593478927413      0.00155626129047
  C   -0.40612382717591      1.76599307497423      0.00307051934223
  C   0.12254386393347      0.47213425405572      0.00164848461532
  C   -0.68984138235595     -0.76474517879866     -0.00086690672384
  C   -0.00926815310966     -2.00644866703664     -0.00020656164714
  N   1.30186719309492     -2.18098995963907      0.00290352171751
  C   2.06146668217428     -1.08369764739032      0.00469113331606
  C   3.44602315599563     -1.00120661229155      0.00550804619648
  C   3.78427975071942      0.37305196180625     -0.00137871226370
  N   5.05293587662494      0.86880573820573      0.04546988432052
  C   2.60645971461030      1.15549908608116     -0.00002942621614
  C   1.51161051793705      0.28838235857895      0.00193537050890
  C   -2.07138727758900     -0.84441190466912     -0.00402916037223
  H   -3.80766143570976      2.11546322761154     -0.00325604811544
  H   -1.81200219763759      3.31338948612818      0.00395906533161
  H   0.34318974253873      2.54816882474907      0.00634104830728
  H   -0.60828477475605     -2.91075053354339     -0.00213447467964
  H   4.13045701726548     -1.83381115353850      0.01227263190984
  H   5.19128721719575      1.82558107295261     -0.22774559125927
  H   5.80176533274971      0.25448449386633     -0.22063206979980
  H   2.59322674095631      2.23469025482492      0.00315298694615
  H   -2.45681085311143     -1.85725292126524     -0.00591504713881
