26
Coordinates from ORCA-job ./opt_b97-3c_parallel
  N   5.15852930856585     -1.85609682940539     -0.00308934376901
  C   4.14291229354917     -1.29102692936004     -0.01508144333349
  C   2.95232671132221     -0.52415107952640     -0.02250839963654
  C   1.75042652980494     -1.21938626395250     -0.03480981758845
  C   0.42746786023076     -0.78677593015458     -0.02359208508114
  C   -0.56510096429287     -1.79968149886928     -0.01235311440638
  N   -1.86981863825851     -1.59777238910827      0.00499772895918
  C   -2.28519551623164     -0.33282619623758      0.01008556710244
  C   -3.59898844651507      0.15655969309097      0.02392069486148
  C   -4.77868850738960     -0.59731173154160      0.03970749489665
  N   -5.77069932872415     -1.20342157530760      0.05313487922102
  C   -3.51171600424590      1.57737166328704      0.01961790530298
  C   -2.18433878779882      1.98333304076861      0.00186498785101
  C   -1.37588906655227      0.82996939309003     -0.00654026198187
  C   0.00104779957290      0.59526120014954     -0.02736599417806
  C   0.87961617061295      1.70798090532319     -0.09093892027570
  N   2.17597010915340      1.85015047607391     -0.06358329857669
  C   3.12100496462075      0.89314037468171      0.01115670856094
  N   4.36079505393025      1.39255622276490      0.10676553967356
  H   1.86872559357429     -2.29621633016415     -0.04663120771675
  H   -0.24045549673545     -2.83461406056985     -0.01622967470717
  H   -4.36785123034323      2.23313098276547      0.03087200602403
  H   -1.85803946913548      3.01034239257180      0.00488341045640
  H   0.36693006491827      2.66114966710821     -0.17275686218403
  H   4.46462410650562      2.39168081575043      0.09748831046925
  H   5.17688494386167      0.80851575607159      0.16298175845649
