29
Coordinates from ORCA-job ./opt_b97-3c_parallel
  N   -0.91514229411170      3.76570749094823     -0.14784082638584
  C   -0.58869236121104      2.65072719498199     -0.07827990086549
  C   -0.03340768850332      1.35753105977937     -0.01345323770687
  C   1.38176100405647      1.24928638876403     -0.03340101290871
  N   2.15965708134357      2.36016719993845     -0.09752182304692
  C   1.92878513469287     -0.02668255403332      0.05208881086020
  C   3.24597072441106     -0.51615979351980      0.08383147854699
  N   4.41782441572486      0.20814166074464      0.13892009321528
  N   3.26985582037269     -1.87342058235427      0.02982728178910
  C   1.98985027626659     -2.27550392239903     -0.01372927921045
  C   1.08547516287980     -1.18885257757625      0.01150168636739
  C   -0.32019370655307     -1.11493735938902     -0.00043139770685
  C   -1.08536651246458     -2.28266894708789     -0.08074558569906
  C   -2.45961518902620     -2.46072886613933     -0.09432112479221
  C   -3.47510007640551     -1.53635155669973     -0.01957178239003
  C   -3.30667348690005     -0.14136512245485      0.09581987531242
  N   -4.42887298921036      0.61737490122925      0.25227962894926
  N   -2.19274936418927      0.57671773878510      0.09086982531016
  C   -0.90677478793258      0.23780978831479      0.03359470966736
  H   3.08449317349077      2.24777997804192     -0.47796125745123
  H   1.70763411600727      3.23251375530801     -0.32135726904721
  H   5.21917991745986     -0.39448074162180      0.25612526418605
  H   4.42059459067562      0.95386393581111      0.81898276474491
  H   1.76030479362616     -3.32968956903600     -0.04837527911629
  H   -0.51240839782273     -3.19778058790982     -0.14425420826735
  H   -2.78145973081349     -3.49274528183499     -0.17457111651906
  H   -4.49112703404512     -1.91122120512875     -0.02866883514987
  H   -5.33216209415347      0.23569976903228      0.04224675336314
  H   -4.30976025436409      1.61074026870487      0.15567334435089
