24
Coordinates from ORCA-job ./opt_b97-3c_parallel
  N   -3.61936874600787     -1.10479454815681      1.17251125193336
  C   -2.79283891206971     -0.46245318471282      0.66971650391771
  C   -1.82817838039768      0.45949710982725      0.17815167993760
  C   -2.36418818791521      1.76141917379195      0.08504670422636
  N   -1.84194958227144      2.91421356707443     -0.27233070164849
  C   -0.53663477625223      3.12260482625984     -0.44628379795226
  C   0.54918663528799      2.29628657066789     -0.25332507877422
  C   0.64183237707963      0.91070030068727     -0.02325003725653
  C   -0.50481739302429     -0.00285673738910     -0.06910354587247
  C   -0.25140738041056     -1.38726118488564     -0.24414116509275
  C   -1.27073172681566     -2.29769122482706     -0.61721354248364
  N   -2.01820753804430     -3.09549188035920     -1.00755824380990
  C   1.04581583492823     -1.91904458847213     -0.15643853461667
  C   2.11035148402342     -1.08946804498187      0.08881324315977
  C   3.49752276486535     -1.28250261175863      0.23733219529858
  N   4.13937564537685     -0.10652862794626      0.38878244216979
  C   3.20571678842892      0.86605067836261      0.32742822527657
  C   1.90939396388657      0.33809376911181      0.15024868130615
  H   -3.42082130458336      1.81776059333441      0.32559085245749
  H   -0.30058672032453      4.13833807745084     -0.74712099596795
  H   1.50269194206546      2.79420326257988     -0.36922911258856
  H   1.17754731716880     -2.98399326276227     -0.29068076076254
  H   4.03705707521245     -2.21721454260592      0.24380198388209
  H   3.49805747097522      1.89966817541064      0.43419722955381
