28
Coordinates from ORCA-job ./opt_b97-3c_parallel
  N   5.51648289388264     -0.41536779693474      0.34275612041494
  C   4.40073715963982     -0.11330608584322      0.21985740914553
  C   3.04316900290862      0.25937388450174      0.06759662749001
  C   2.78796301866970      1.58762000562166     -0.31166743729828
  N   1.66678904323379      2.25331174236529     -0.29627979859419
  C   0.44071705731528      1.81298558437865      0.04058827516907
  N   -0.35472718137378      2.80962553552401      0.45491205011443
  C   -0.12770125988751      0.50033565221398     -0.06771232842801
  C   0.70142911647570     -0.70507835231188      0.01198691090854
  C   2.07078192846188     -0.74276715707767      0.19429227859374
  C   0.02317186185810     -1.98072830211421     -0.02104944117276
  N   0.74279906178438     -3.15465937545210     -0.08813037992094
  N   -1.28914885939577     -2.13742437558236      0.03121155227250
  C   -2.04875448544383     -1.04704958880044      0.02375186883169
  N   -3.37844441213106     -1.06450893870272      0.05941970552582
  C   -3.74398302610047      0.24445943185114     -0.06894003540855
  N   -5.05884921503407      0.55185918601151     -0.07548625309286
  C   -2.65830920815930      1.13924513335195     -0.14446241202978
  C   -1.51135154511733      0.32947449552699     -0.08582581252821
  H   3.64898037237107      2.17012092441424     -0.62689360229200
  H   0.06013133404098      3.71918586484310      0.55710375786308
  H   -1.23261189412352      2.60832091021333      0.90406305873590
  H   2.47812077018321     -1.71321156085744      0.44140157018116
  H   0.13668940105710     -3.95292452991657     -0.18953499298642
  H   1.53262385901558     -3.18174531019445     -0.70850062164506
  H   -5.35546118543169      1.44704316884252     -0.41773285425253
  H   -5.69570801300095     -0.21492854223442     -0.20529582847314
  H   -2.74358374449869      2.19364224276247     -0.34646369162361
