30
Coordinates from ORCA-job ./opt_b97-3c_parallel
  N   1.86566067165564      4.02631515407984     -0.50705060582374
  C   1.44143622248213      2.95896214254368     -0.32283341441334
  C   1.10664877041220      1.60095113793070     -0.14934816438752
  C   2.15598405185230      0.65559217316627     -0.21145501020307
  N   3.43795131029855      1.04414566062814     -0.45661803253154
  C   1.82687479175036     -0.66754696239600      0.06852830114316
  C   2.58927899364647     -1.82516549632052      0.28898052418487
  N   3.94423866744120     -1.96540630584688      0.29861769627995
  N   1.79081356327169     -2.91303950835698      0.52027931194247
  C   0.53516645183912     -2.48041644591763      0.45991254125333
  C   0.45465815770459     -1.07624433745389      0.20104914426659
  C   -0.61304441928252     -0.17922539277396      0.09952976032018
  C   -1.93998949735663     -0.63749779674873     -0.16598275421677
  C   -2.09526923136600     -1.95690204482101     -0.64102100541497
  N   -2.36419364245768     -3.01070693121087     -1.05789025385141
  C   -3.17612013521022      0.05492420613136     -0.03626561366638
  N   -4.32069104223934     -0.62474128636683     -0.28036627019813
  C   -3.32337419977289      1.39009382807353      0.37655137478599
  C   -2.33542961876763      2.32359230776789      0.57412878122540
  N   -1.02775393765793      2.29522250813877      0.38051183490555
  C   -0.24400674872166      1.25079282501019      0.11768200933750
  H   4.03582242523819      0.37408132591778     -0.90972215543664
  H   3.57423641100072      1.99473647435229     -0.76411440107232
  H   4.25134825119413     -2.85926955695945      0.64947486064955
  H   4.47752451969479     -1.18896549812059      0.65570433579088
  H   -0.27656238535892     -3.16212155034314      0.64761319234580
  H   -4.30170601824297     -1.56389127480527     -0.63850374533871
  H   -5.18738882710333     -0.12601670648500     -0.34641379608729
  H   -4.33750986974754      1.73177058024850      0.54373170111402
  H   -2.68591638459704      3.29262162423822      0.92140426169623
