26
Coordinates from ORCA-job ./opt_b97-3c_parallel
  N   -4.47190087753106     -2.29158453790461     -0.28195267687832
  C   -3.59519389811332     -1.53680118732124     -0.18934181735648
  C   -2.54368853364313     -0.58579789883928     -0.07929231756408
  C   -2.93533885241211      0.77083118911812      0.02175963631811
  C   -2.16136727785697      1.87112013218841      0.18117957064331
  C   -0.74168795613569      2.04122311560351      0.23223441377143
  N   -0.37368517213135      3.28127818467219      0.58628566057160
  C   0.25837865519872      1.05692319135576     -0.04618615862681
  C   1.63020430400920      1.44248399089335     -0.21469688879292
  N   1.98173118323796      2.79350047447214     -0.45501579368350
  N   2.67542628340371      0.63181525080092     -0.15059294512729
  C   2.43763441098607     -0.66520708136340      0.02502023100844
  N   3.33089405476852     -1.66262778619890      0.11458640379827
  C   2.52899670058085     -2.75194625122516      0.17326729622210
  N   1.19207964211617     -2.55924814453595      0.12995995918314
  C   1.10130927662207     -1.21501218411866      0.04798989417606
  C   -0.01890129279206     -0.37655676852304     -0.00366674621503
  C   -1.25307148592833     -1.05556363938418     -0.03847603422425
  H   -4.00286063568868      0.94839841016077      0.00168012868042
  H   -2.71277403777559      2.79717283771067      0.29391097107755
  H   0.61232158696663      3.53461522377892      0.57135692198010
  H   -1.06687920867331      3.97865171039442      0.78454034027611
  H   2.98913164007141      2.83608629509902     -0.53495795482840
  H   1.56902005559761      3.15507491408274     -1.30579091447030
  H   2.94372073186075     -3.74628087057842      0.25273240841818
  H   -1.13228735473809     -2.13154510343810     -0.05188319565744
