30
Coordinates from ORCA-job ./opt_b97-3c_parallel
  N   -4.92679425068878     -0.78323396399635     -0.98353009692238
  C   -3.86414297100125     -0.44893700508820     -0.64009269311753
  C   -2.59048294049404     -0.02884062846474     -0.21866137433291
  C   -2.41004651900624      1.36908185306936     -0.05084763247300
  N   -3.50473009231836      2.15669994926317     -0.21809431263925
  C   -1.23416059139012      2.03355047401056      0.30268532506856
  C   0.09098831743764      1.62180886973990      0.35952728901536
  N   0.95853315791370      2.65411418745225      0.57134805552537
  C   2.25520794252065      2.46309967404962      0.43037826058930
  C   2.78398764092350      1.24387590804976      0.04155825151285
  C   4.05823812399318      0.81242537461965     -0.35737750365195
  N   4.06769605900559     -0.47663304386119     -0.72310118754992
  C   2.80650988735765     -0.94491881501391     -0.54190333998069
  N   2.53002264967993     -2.19793012930450     -0.92408836793234
  C   1.91794873575844      0.10603778292575     -0.06062872998533
  C   0.55669914843903      0.24042599456475      0.19828860602007
  C   -0.29733128902712     -0.89025274861681      0.43831096142877
  C   0.31710298505704     -2.02737868019379      0.97473999367980
  N   0.80074153430054     -3.00174503576366      1.40129665530178
  C   -1.68295494051790     -1.04930996905856      0.16420652034526
  N   -2.18713617769596     -2.29970590395102      0.24290396890288
  H   -4.36643760688625      1.77343530187669     -0.56398730550888
  H   -3.38661754235143      3.14859876845634     -0.30132558090841
  H   -1.33491840286155      3.09967695910497      0.45952025076869
  H   2.89183896049733      3.32391794046698      0.60856879187817
  H   4.96276724759389      1.40155910260724     -0.40171244016885
  H   1.80761936913377     -2.72444443515778     -0.45619743641402
  H   3.33743711106675     -2.72769914955600     -1.21318505579368
  H   -1.60391265014065     -3.07822581345247      0.49046193959557
  H   -3.17530240669885     -2.46197707967802      0.17326506134668
