29
Coordinates from ORCA-job ./opt_b97-3c_parallel
  N   -5.09134421718716     -1.06660521377593     -0.12751376121040
  C   -4.03727897762875     -0.57122090114247     -0.08331607948175
  C   -2.82278542557124      0.10991223190238     -0.03887848225786
  C   -2.70007454551847      1.53819502738775     -0.04113041113755
  N   -3.76048126402779      2.37585826179504     -0.04026728843851
  C   -1.34303323458607      1.90108144169318      0.00348307199579
  C   -0.58185239877013      0.72847833062743      0.02543310006228
  C   -1.51998791034221     -0.40674098866500      0.00669253891598
  N   -1.14735874706331     -1.67482626108471      0.07688238936615
  C   0.15735041940652     -1.95168896574887      0.10036413061023
  N   0.46249084291617     -3.30426155424756      0.16874868505085
  C   1.18299056978427     -0.97092782194438      0.00782031650170
  C   2.49214102568734     -1.39650186028254     -0.20970429717009
  C   3.68487894601070     -0.70955456641891     -0.25551764779502
  C   3.89676883759422      0.65920262124894     -0.00984344145182
  N   5.17014320667761      1.10195050060897      0.05843605106073
  N   2.99892362952528      1.64974069938740      0.15549811927498
  C   1.68923709658573      1.51793176754652      0.13010402147387
  C   0.79263552665496      0.43801379819139      0.05361547266654
  H   -4.66672205163794      2.00022238143092     -0.26107412505913
  H   -3.62045731682758      3.34437402531480     -0.26107150178660
  H   -0.98727035625754      2.91891877475871      0.00364374690488
  H   -0.37676739840302     -3.84807409821862      0.29771167118390
  H   1.17396364912558     -3.55885276267026      0.83343104508665
  H   2.59408928995062     -2.45721138916196     -0.40383574035249
  H   4.56913296968662     -1.29949404756001     -0.46508960944428
  H   5.95688681265777      0.49418543187068     -0.06606997363924
  H   5.32133999484962      2.08701611983841      0.17905269059852
  H   1.19286360570808      2.48057470341867      0.20617863577176
