24
Coordinates from ORCA-job ./opt_b97-3c_parallel
  N   3.17132286297201      2.15573878711411     -0.09613241349015
  C   2.45156758425057      0.99191440630827     -0.04195260784836
  C   1.05476578540566      1.10605614219852     -0.04558470383551
  C   0.03257209820610      0.16322662873902     -0.01663649921884
  C   0.24717105248758     -1.30202244483793      0.00005356648522
  C   1.51283187961649     -1.89091872906440     -0.00720504009991
  C   2.78861520718851     -1.33859774700948     -0.02302755010842
  N   3.23421016317585     -0.09805021792130     -0.03056616881240
  N   -0.77005564447960     -2.18774906039829      0.02116353653265
  C   -2.02627603969753     -1.74311546536861      0.02725956122156
  C   -2.36682991631840     -0.40580074412662      0.01141955129317
  C   -3.60278092102156      0.27136959363718      0.01360777579854
  C   -3.33001657060500      1.64126169960196     -0.00654766883080
  C   -1.94035923936561      1.84130230880114     -0.02112571613754
  C   -1.31280654550280      0.58155707586428     -0.01114692548744
  H   4.15270119242565      2.06323964822679      0.09882939853612
  H   2.74055816683870      3.01884566830281      0.17962344539684
  H   0.70418978932794      2.13126633793519     -0.07525054661953
  H   1.47832880153289     -2.97220212458709      0.00447897035606
  H   3.59121845462863     -2.07130851952038     -0.02225002172195
  H   -2.79401977142333     -2.51108988394780      0.04584711872979
  H   -4.57837028406624     -0.18878080487120      0.02853603189218
  H   -4.06863659140027      2.42824935566343     -0.01029224828713
  H   -1.45908600887623      2.80730307986043     -0.03807760464412
