32
Coordinates from ORCA-job ./opt_b97-3c_parallel
  N   -5.92365319620333      1.34352467098236     -0.53695665241099
  C   -4.79490033969217      1.10857395674323     -0.37980569394071
  C   -3.45728350187918      0.73246476798145     -0.20349379398838
  C   -2.34061049650765      1.55592550719130     -0.02139766380679
  C   -1.19628518907141      0.74183861193854      0.04956057782944
  C   -1.62475650031655     -0.62756653511547     -0.05540194387587
  C   -3.02075498849374     -0.63096080906161     -0.23280157068273
  N   -3.83819153849028     -1.72183242784626     -0.36740979766118
  C   -0.72636906167433     -1.65304758211745      0.22275970720445
  N   -1.12480253376033     -2.93849934874302      0.37248579373876
  C   0.65791362623581     -1.31293695567336      0.32845292552115
  C   1.51902673940785     -2.36667618502513      0.68992846699056
  N   2.10603000872569     -3.29978527648327      1.06355655077235
  C   1.12904562115345      0.01165754791974      0.16096911217184
  C   2.48505724770841      0.21489860868265     -0.20099723420473
  C   3.16475511103237     -0.85958312191031     -0.81809027047683
  N   3.80806125394867     -1.63453758816956     -1.40160050225816
  C   3.28238009130191      1.39625466164905     -0.07898958165560
  N   4.58445123626517      1.31284938854017     -0.42524060351975
  C   2.83297268938556      2.62615286595947      0.41427982084927
  C   1.53837546992638      2.99635261363036      0.71348516959924
  N   0.37912774672227      2.38584733908220      0.56575442089779
  C   0.14323290633235      1.10928124199710      0.25273815260781
  H   -2.35028308578531      2.63023276832062      0.03256480749615
  H   -3.48172943248199     -2.46856590977667     -0.94350518665373
  H   -4.79976757590994     -1.50649683039384     -0.58486867126227
  H   -0.45286867381534     -3.60329818126716      0.72256539816088
  H   -2.07694321717038     -3.10038105306090      0.65506513363630
  H   4.97439320753229      0.46711970730916     -0.80346768114624
  H   5.15438926032658      2.13669545556938     -0.44331999390073
  H   3.58712490395206      3.38949808735566      0.56223425900069
  H   1.43765283649348      4.00189940299328      1.11549242027012
