30
Coordinates from ORCA-job ./opt_b97-3c_parallel
  N   4.67661003450892     -2.50743865410579     -0.75239247187569
  C   3.72346224385733     -1.87104759435626     -0.55209258066991
  C   2.63686866117924     -1.01980609990122     -0.31277299277400
  C   1.28278598203653     -1.34464220311260     -0.27077214734180
  C   0.53997536050233     -0.15292476514476     -0.07324955002562
  C   1.49687959278489      0.92443845308955      0.02958013259315
  C   1.02808894793499      2.21274001106765      0.29081551784679
  N   1.86950899387449      3.24597518016994      0.59596232910749
  N   -0.26558883328042      2.51019360144659      0.19779818041814
  C   -1.17819692006872      1.55045556170900     -0.03120587435526
  C   -2.44822232946874      2.03451218084687     -0.36106563256981
  C   -3.62467779173875      1.35918083279053     -0.63577026288529
  N   -3.99670364549627      0.10717810619390     -0.46679160999864
  C   -3.22388387434669     -0.86721339423083      0.03327238741735
  N   -3.93989427510689     -1.95985187698650      0.37266149953552
  C   -1.80228909481138     -0.90993649333493      0.20003026703516
  C   -1.34387694564997     -2.17086296237585      0.63534341926546
  N   -1.09129501002118     -3.24091159348303      1.01949056685863
  C   -0.83331745964308      0.11559302270194      0.00215681751681
  C   2.78227468075791      0.39743745395923     -0.13131309540680
  N   3.97324186987315      1.06490167296020     -0.10658948467398
  H   0.89941867981782     -2.33695590320151     -0.41571184608843
  H   1.39376855101878      4.07973409691712      0.90285936926030
  H   2.69393094629368      3.01704103227806      1.12687311203675
  H   -2.48546135516211      3.10915496353578     -0.47623125117188
  H   -4.42147855834558      1.98256193769209     -1.03347938734273
  H   -3.51279065274504     -2.81706710567014      0.67348658193032
  H   -4.91819945302162     -1.94507957687321      0.15051801579182
  H   3.96508441691400      2.00386621018161     -0.47164219896196
  H   4.77408200885303      0.53399847573571     -0.41238710877210
