26
Coordinates from ORCA-job ./opt_b97-3c_parallel
  N   1.03682154266069     -3.17836028522726     -1.04759877928299
  C   0.29276421809388     -2.32953654553040     -0.75525077300454
  C   -0.58917181185100     -1.30166226869209     -0.37685352907434
  C   -1.94807234518819     -1.68264647256288     -0.42245100540142
  N   -3.04367048524329     -1.05271074232580     -0.09760457213766
  C   -3.02851568156278      0.24828241257301      0.30111174147867
  N   -4.10594070819299      0.59107093817994      1.03877754322495
  N   -2.20078633885029      1.22999786734506      0.00897726480177
  C   -0.91352743020039      1.19119605786170     -0.32932228082901
  N   -0.40760098155443      2.35297507772840     -0.75729439759566
  C   0.91290205667598      2.53722828878392     -0.73747628268030
  C   1.78413065211964      1.60548467070620     -0.22124284524036
  C   3.16931546126236      1.64746420634179      0.05896208324757
  C   3.56212819392171      0.42459645839488      0.56489893487179
  C   2.44614130318931     -0.45132589191148      0.58384551399339
  N   2.48001337380440     -1.68406432328467      1.11960877461157
  C   1.29577180635234      0.28511681968171      0.08681243546062
  C   -0.04550992649845      0.00023651220766     -0.14226666481943
  H   -2.11315586396517     -2.70261132960853     -0.75905017402757
  H   -4.28248832583011      1.56584873610331      1.19927410137980
  H   -4.86261183279707     -0.06432591230494      1.10708776008162
  H   1.26778891462974      3.49382597949091     -1.10695597490433
  H   3.81119314359320      2.50045496343550     -0.10018612651162
  H   4.55312098283145      0.15468838898957      0.89529838131788
  H   1.84912943099696     -2.39450482281732      0.77920328886078
  H   3.38679621530255     -2.03791846425837      1.37506527987928
