27
Coordinates from ORCA-job ./opt_b97-3c_parallel
  N   5.27484386414368      1.71033305347847      0.00178614662039
  C   4.19171787337357      1.28941284520204      0.00129780219585
  C   2.86254454340868      0.79964115227845      0.00056844673135
  C   1.84131249018773      1.77866415825633      0.00117740567621
  N   0.54243024653279      1.67852669081121      0.00084837986387
  C   -0.23572929992231      0.55283695926448     -0.00034555039476
  C   0.15209368801033     -0.86634417392872     -0.00169176082804
  N   -0.74664632312902     -1.83957655481896     -0.00294341544315
  C   -2.07684353492451     -1.60314196403789     -0.00301037485339
  N   -2.84221605373216     -2.70575759583879     -0.00464176560815
  C   -2.56614331288493     -0.29582824953476     -0.00162073859888
  C   -3.81671042865237      0.34494370356905     -0.00125727866225
  N   -3.71268698103901      1.68933326429864      0.00015138711124
  C   -2.38825518853150      1.96344317990767      0.00072835057314
  N   -1.89311017413737      3.19484750422301      0.00207734761674
  C   -1.59950903165691      0.75612055691748     -0.00031470837765
  C   1.51464879083106     -1.32577642586576     -0.00156976922821
  C   1.69141873543033     -2.73593591166769     -0.00252223592795
  N   1.90854880294200     -3.87641479994517     -0.00284374794064
  C   2.68321830494174     -0.58248729341437     -0.00062254226872
  H   2.20209834863950      2.80354915050214      0.00213400601030
  H   -3.84283357907695     -2.66301431096541     -0.00376589913877
  H   -2.38716304809026     -3.60134782446913     -0.00473876406635
  H   -4.79561915165815     -0.11274796854865     -0.00198792572051
  H   -0.88606226551914      3.28677983152992      0.00225122494177
  H   -2.50775635943130      3.98971981607612      0.00262199547702
  H   3.59357575274448     -1.16661293227976     -0.00082774786048
