33
Coordinates from ORCA-job ./opt_b97-3c_parallel
  N   -5.26575421623443     -1.52882824226122      0.44463233047909
  C   -4.32425827045838     -0.85460775715457      0.32435654268950
  C   -3.16169750977941     -0.08985119316929      0.17544817786864
  C   -3.04870764664717      1.30436978169863      0.19905641969437
  C   -1.70101790436675      1.67581164142570      0.04231788694951
  C   -1.24401528417956      2.99159204423743      0.15149804293551
  N   -0.84653905476334      4.08530841159795      0.22721837423568
  C   -0.92702336980351      0.46748776286658     -0.09229152199954
  C   -1.85189039539780     -0.62185998460256      0.01933323751569
  C   -1.38934486754862     -1.92501660153424      0.04322826751043
  C   -0.03900182956727     -2.20150707925126     -0.04419888467563
  N   0.38270883991851     -3.56359417966497      0.03332854270842
  C   0.91038517407609     -1.15397287491302     -0.22009953142324
  C   2.33142078149024     -1.47508921693725     -0.39574887234411
  N   2.63001233238184     -2.62206499712931     -1.04943119591644
  C   3.37801079994540     -0.72891991677725      0.11785917739822
  C   3.32360664095978      0.61350405004283      0.53744371549167
  N   4.31945105553653      1.08651865107433      1.33170967825766
  N   2.48498184380831      1.52745481821244      0.07848538493038
  C   1.35089203352648      1.29440465117708     -0.54165137486409
  N   0.96781471213593      2.18841244200098     -1.45730715710719
  C   0.43987830269213      0.18721078468693     -0.25427544115563
  H   -3.86199416100543      1.99640284692194      0.34216253229735
  H   -2.09364483372632     -2.73662349007592      0.18443081816809
  H   -0.41976373394702     -4.17481456438088      0.07173325980255
  H   0.93635325623020     -3.73592571459382      0.86383518650642
  H   3.58403346554302     -2.93867231480066     -1.04458601706948
  H   1.90651199495903     -3.33441262726416     -1.09452082424300
  H   4.35406565919534     -1.19921660504695      0.14226644104841
  H   4.81118767095759      0.45128817686340      1.93168217472148
  H   4.23765103462377      2.03823339841670      1.64410928338999
  H   1.41900241322204      3.08849005830914     -1.45675679723689
  H   0.02613880772276      2.16260228322527     -1.80661241316377
