27
Coordinates from ORCA-job ./opt_b97-3c_parallel
  N   -0.58826692315957      3.62200930729011     -0.19988199647400
  C   -0.73239610961097      2.46878888705973     -0.13765504889356
  C   -1.02509957057699      1.09027631242774     -0.10615076170655
  C   -2.39869299884548      0.77364323729725     -0.42560703709229
  N   -3.13258248847834      1.72795271594603     -1.03421898573249
  N   -3.05933881797765     -0.33106368244023     -0.13864251222053
  C   -2.48437952560022     -1.43900854894816      0.33881816742933
  N   -3.30673110831217     -2.23803290333099      1.05463712961577
  N   -1.27267015579073     -1.94045200110908      0.12608071670426
  C   -0.15322656373221     -1.28936067826819     -0.12929960217913
  N   0.86868081317340     -2.05149822321248     -0.52574126550712
  C   2.11877074414446     -1.58978283746339     -0.45679137261629
  N   3.06926073930071     -2.38852692599720     -0.96816733317450
  C   2.41838413206512     -0.34624298403431      0.14106346066299
  C   3.57821174183317      0.33227959809343      0.49527950474726
  N   3.29868004599395      1.57549247662784      0.98232979090021
  C   1.97240412600035      1.72843436473825      0.91039216108393
  C   1.33740479634211      0.55811247772715      0.40547626597636
  C   0.02264216457010      0.18124936437344      0.10575596540503
  H   -4.12365690946798      1.58046751984656     -1.09086170941433
  H   -2.77765261700665      2.65828003227645     -1.16416115400692
  H   -3.01607183487794     -3.18437581353733      1.21891424073010
  H   -4.28611979111125     -2.02107526226168      1.07136791577073
  H   4.04099369586390     -2.15269659780132     -0.90840846961147
  H   2.80441975733013     -3.30208064785106     -1.29056121765943
  H   4.60268967686892     -0.00757192036938      0.44000388964162
  H   1.50827031136121      2.63942087442100      1.24847887142093
