32
Coordinates from ORCA-job ./opt_b97-3c_parallel
  N   -5.69630586749783      0.52636552826526      0.68867799545239
  C   -4.56620765754169      0.35131597143820      0.46658150098789
  C   -3.21196085488489      0.14154539227492      0.20672399881438
  C   -2.57126169482006     -1.12630513762556      0.13390267958192
  N   -3.21128738162002     -2.32510615151664      0.21471127596512
  C   -1.19152399860079     -0.90834599635075     -0.04192928211580
  C   -0.14310101652875     -1.78282003071335     -0.28304847095022
  N   -0.34050802075125     -3.11619699182964     -0.47650541121884
  C   1.18248644938191     -1.24496098772145     -0.27811386346206
  C   2.20723433808319     -2.16055796480011     -0.59179060594175
  N   2.92291188106963     -3.01024684253920     -0.93685364727306
  C   1.43701743892450      0.12887610563584     -0.08279882558934
  C   2.73558485646306      0.57600909351438      0.30906232376223
  C   3.60131697777870     -0.36664197006190      0.92148417785372
  N   4.32895185763058     -1.06413704470651      1.50036719374756
  C   3.27720512183892      1.88051910684385      0.31141216415786
  N   2.84306911597548      3.02661607762733     -0.15712003242801
  C   1.60976844736339      3.20068639199176     -0.65586705960159
  C   0.49292373219392      2.41037713378321     -0.61109433659349
  C   0.31825558153748      1.05624312135521     -0.19994833364121
  C   -0.95289931580353      0.51688471564078     -0.06138310358744
  C   -2.22886848311940      1.15176052681118      0.09888961069190
  N   -2.48936244597651      2.47377045328464      0.17320917318838
  H   -4.17817253852562     -2.29109109437556      0.49741756820709
  H   -2.70160761367801     -3.07713329979321      0.64992820571106
  H   -1.19989041810383     -3.38865228993062     -0.92284414413267
  H   0.46051218289210     -3.65704939240738     -0.76518469555411
  H   4.26520566129366      1.93796937269743      0.75856138740735
  H   1.47454424650406      4.16883255756823     -1.12965650349429
  H   -0.37846614339793      2.85545907527441     -1.07411668499821
  H   -1.73870306849072      3.09492212378415      0.42267028642905
  H   -3.39891314898945      2.74904723778081      0.50694812472399
