26
Coordinates from ORCA-job ./opt_b97-3c_parallel
  N   -5.20293456327716     -0.15181004901684     -0.04610749059412
  C   -4.05489624632739      0.03260776797521     -0.01825473561729
  C   -2.64965500785498      0.18934142229739      0.00715071612729
  C   -2.16561082719284      1.49308878429826     -0.00336033852294
  C   -0.87575803709747      1.97974026291413      0.00201109757647
  C   0.36854890662529      1.33727384456755      0.00954250057129
  N   1.40844260153240      2.19598753793375      0.00934557592145
  C   2.65465130475019      1.72516710484167      0.00545503705342
  C   2.96116490149098      0.38036513692348     -0.00168346484221
  C   4.17922099487929     -0.32813064564536     -0.00951986599311
  C   3.87115752085270     -1.69113298635252     -0.01410722555700
  C   2.47820382121644     -1.85594509316745     -0.00851855243593
  C   1.88101873268191     -0.57914880324011     -0.00019721301861
  C   0.54545759315114     -0.12988269923376      0.01103705091963
  C   -0.48353764812135     -1.07381649522824      0.03773827126325
  C   -1.87433751072858     -1.00703341462607      0.03717131673073
  N   -2.55195970991653     -2.19073405002141      0.11058554655032
  H   -2.93599823309092      2.25298503587600     -0.02267335926745
  H   -0.78199848652065      3.05699482020545     -0.00488030101853
  H   3.43928893188561      2.47570015046514      0.00660960551694
  H   5.16618028963113      0.10705490183008     -0.01254467055703
  H   4.58936319678669     -2.49663714951139     -0.02139357577455
  H   1.97470169301443     -2.81060798727527     -0.01198448103116
  H   -0.11671123458751     -2.09344217432332      0.06369885469118
  H   -3.53970049531303     -2.20816095130485     -0.07476530701438
  H   -2.05907861926979     -3.04138138618145     -0.08769718447763
