29
Coordinates from ORCA-job ./opt_b97-3c_parallel
  N   1.22354623373585      3.02558194658138     -1.38607055195280
  C   1.38707351873724      1.99647205255860     -0.86117118066001
  C   1.61071560664870      0.76419729714891     -0.22113985035357
  C   2.97297276735457      0.54690656372644      0.07651300878194
  C   3.61727340119265     -0.59793021636157      0.45730565891021
  C   3.06780892701198     -1.88660414715940      0.48008991617583
  C   1.79163923798639     -2.27981744658791      0.19154891994858
  C   0.59332007204211     -1.54949376526903     -0.05263473663409
  C   -0.54082813764760     -2.31300819052273     -0.28737514230336
  C   -1.83740946261186     -1.78146527337807     -0.34277164002427
  N   -2.89639152928177     -2.60386460974374     -0.62745813160183
  C   -1.99080481364550     -0.42279182455716     -0.09795098318908
  C   -3.14404211167043      0.34585380457339      0.13001976316561
  C   -2.75890641459007      1.63037204715543      0.48457743895335
  C   -1.35272458243595      1.72332211120575      0.46551020479398
  N   -0.67766119128460      2.81910206540511      0.91627965037548
  C   -0.82655808961716      0.42491093305641      0.08978596788327
  C   0.47009402237942     -0.08556326011829     -0.01935136841993
  H   3.59510646764490      1.42610905049788     -0.03906242049959
  H   4.67279676755792     -0.51141287823521      0.67938713547369
  H   3.75805989400348     -2.68846508336643      0.71545148042186
  H   1.63497895038376     -3.35206559631456      0.21713750584694
  H   -0.41995172117661     -3.38453330624156     -0.38775166161831
  H   -2.76899060686454     -3.58541406872024     -0.45294278052856
  H   -3.81274390967445     -2.27142180253007     -0.38589568831435
  H   -4.16689960765478      0.00757487411310      0.05529103312426
  H   -3.41959134154708      2.44351307601738      0.74481290191835
  H   0.13271183651223      3.12655941999390      0.39622907173787
  H   -1.27493147948885      3.59162587797231      1.16363614868850
