23
Coordinates from ORCA-job ./opt_b97-3c_parallel
  N   4.18880507843352     -2.20468317380861     -0.00056301589092
  C   3.37007036787689     -1.38258353582740     -0.00041922627790
  C   2.37481896147572     -0.36378897310345     -0.00016882952281
  C   2.86818701218901      0.96194524889620     -0.00030216179700
  N   2.22728142068924      2.11047149659690     -0.00008181477113
  C   0.90751506081318      2.28319345679984      0.00030242329345
  C   -0.19108515035086      1.41658014855141      0.00052996510916
  C   -1.45761224129740      2.04043501369874      0.00087546801111
  N   -2.63178899926918      1.42136511565243      0.00112971647023
  C   -2.61319104951700      0.09297790420371      0.00105764331472
  C   -3.69326714646165     -0.79290702680144      0.00127703376621
  C   -3.16582187695452     -2.09373602671627      0.00108844427905
  C   -1.76472606265426     -2.05399005462383      0.00075512451886
  C   -1.36831493372451     -0.70649866043578      0.00072171922493
  C   -0.13724870200272     -0.04934871220178      0.00045363116346
  C   1.05382582966630     -0.78799464267229      0.00015758248964
  H   3.94946636799142      1.05354271893827     -0.00062073901553
  H   0.63398235762634      3.33497001915437      0.00045243250877
  H   -1.49301047067005      3.12364008012310      0.00093977408579
  H   -4.73330139814563     -0.51261184240271      0.00154192920108
  H   -3.75175111705705     -3.00023115369243      0.00118614788984
  H   -1.12469458403933     -2.92215182605907      0.00055847064894
  H   0.92379975258253     -1.86169619396992      0.00017842620005
