26
Coordinates from ORCA-job ./opt_b97-3c_parallel
  N   0.81778352636140      2.91378476775538      0.33076579218058
  C   0.05414414892768      1.71993247221875      0.20765018438643
  C   -1.33435778962828      1.82995152272513      0.22170001843217
  C   -2.14033390468262      0.72150467016027      0.04408966915015
  C   -3.52133298803948      0.47656393021908      0.00782679984880
  C   -3.63719578572566     -0.90685005329682     -0.14088464751692
  N   -2.44387203219829     -1.55359394179486     -0.19810709805823
  C   -1.51562190295431     -0.58042835711898     -0.09368786975440
  C   -0.11354854741542     -0.73009339469376     -0.05092678391442
  C   0.35823996308902     -2.05776262746255     -0.06390447793075
  C   1.62081603935576     -2.55539272997864      0.13094984668033
  C   2.78387151031575     -1.80418753675243      0.31305465051045
  N   2.99469323896477     -0.53320635618934      0.08126841986842
  C   2.11007873025091      0.41156578109588     -0.26579599763948
  N   2.67429957460997      1.43358790760624     -0.93549535239317
  C   0.69571900371017      0.47106008545870      0.02662680685282
  H   0.21835904104104      3.71035870509987      0.48467130738303
  H   1.48343503985275      2.86836505382799      1.09065692601145
  H   -1.77527849562345      2.80979213816752      0.37663191693786
  H   -4.32070393772678      1.19595726813089      0.08322214989213
  H   -4.55568955806509     -1.47249495752652     -0.21279139349322
  H   -0.44143565407435     -2.78151977392927     -0.16249200413771
  H   1.72814598751239     -3.63016475356758      0.20621905381551
  H   3.66664319196937     -2.34110848789657      0.65090066309008
  H   3.67965712469116      1.45135398644389     -0.95751433654692
  H   2.16633240778159      2.30748736639771     -1.00746307685502
