31
Coordinates from ORCA-job ./opt_b97-3c_parallel
  N   -5.79474285084213      1.38787228687384     -0.19152301412731
  C   -4.66680046208867      1.10863725409419     -0.12208879158379
  C   -3.33253239228981      0.69062857919680     -0.04852897335006
  C   -2.18350005200520      1.49163831946600      0.01902564658751
  C   -1.05762474474879      0.64751874517486      0.02382483674559
  C   -1.54002443690842     -0.70901253520030     -0.02096449631574
  C   -0.60694264928416     -1.73992453180388      0.10486840449972
  N   -0.97420772655136     -3.04537203607095      0.21914803128449
  N   0.70524784581094     -1.50252640165129      0.09470905465983
  C   1.19929696521885     -0.25769355837201      0.03235654531273
  C   2.61771578567239     -0.25077461935114     -0.05820455730226
  C   3.20101720058088     -1.54382646746563     -0.10987190421988
  N   3.84216482751449     -2.51339434536253     -0.15688963931407
  C   3.56515432334349      0.81338781643232     -0.08759977346375
  N   4.87392593978971      0.48525162071533     -0.25341682506678
  C   3.27271665312655      2.17642975686890      0.03006117470167
  C   2.03921801768929      2.78144972367348      0.14231058846827
  C   0.76689348816528      2.24635396769264      0.15136386425724
  C   0.32459966739849      0.92256392398915      0.06435160750994
  C   -2.93783649691436     -0.68446827013364     -0.08614789273179
  N   -3.79235731789001     -1.76325538900621     -0.14112302210650
  H   -2.19881506711419      2.56812557371705      0.03322964464379
  H   -1.86602636914385     -3.23975982297574      0.64361270373634
  H   -0.22523503636232     -3.66926404950935      0.47337328356038
  H   5.57517828061770      1.18483268233881     -0.10056230769151
  H   5.16908283366806     -0.47392391336289     -0.19171729912193
  H   4.12869912996622      2.84013322626354      0.01620281066830
  H   2.07409721251781      3.86131991828286      0.22569386248634
  H   -0.02394672398937      2.98002364340993      0.22819547035196
  H   -3.50378224598261     -2.50059083956403     -0.76590576828109
  H   -4.75882538936487     -1.51634428906008     -0.29348156599759
