28
Coordinates from ORCA-job ./opt_b97-3c_parallel
  N   -0.29504646827364     -3.44010863185485     -1.21518824533826
  C   0.26291921939980     -2.49481068461545     -0.82191535347475
  C   0.94202474180314     -1.36145336337902     -0.33897973668079
  C   2.34097787798007     -1.53738095497153     -0.31163087667910
  N   3.32680601862890     -0.74496702804892      0.00982613746655
  C   3.14053613298920      0.57036774321919      0.30029692650947
  N   4.23316488884441      1.13025838936211      0.87261915360451
  N   2.14457569555118      1.40157144776686      0.06814259803396
  C   0.84488002214524      1.14669552030596     -0.15976069062831
  C   0.06351421903266      2.26644996053404     -0.43514194255749
  C   -1.33175447293484      2.25132502198524     -0.41508944184113
  N   -2.03730774192643      3.38028891564249     -0.70342259255974
  C   -1.96249939200171      1.04651059780301     -0.07279737508835
  C   -3.28329408593967      0.71352957361253      0.23236091347549
  N   -3.42283851989721     -0.56922025550070      0.61167012955434
  C   -2.19496720400517     -1.12957148332672      0.53411692648629
  N   -2.03100181651402     -2.38087099487641      0.98864822740440
  C   -1.19407212288108     -0.15651691518985      0.09956022613564
  C   0.18493954029039     -0.17523376870403     -0.07920600559939
  H   2.66323317978766     -2.53458907360354     -0.60032659351587
  H   4.26962833298123      2.12946400689729      0.95142068387099
  H   5.08681782177261      0.60329615055254      0.87518999766625
  H   0.59284711741717      3.19954087706920     -0.57019347503256
  H   -3.00234200618894      3.42594884987641     -0.43224095036160
  H   -1.55214731796611      4.25905337597672     -0.67397921772881
  H   -4.15487651545058      1.35266422392080      0.19144171526964
  H   -1.32362357699105     -2.97629144881863      0.58403674100069
  H   -2.89467514515318     -2.84228970613494      1.22739258420845
