29
Coordinates from ORCA-job ./opt_b97-3c_parallel
  N   -4.36303939504561      1.87184053187506      0.19159642852064
  C   -3.36372423427711      1.28552408626913      0.10816780334884
  C   -2.09031589491304      0.68026851177690      0.00619173329570
  C   -0.95459641735441      1.49540677322447     -0.07950140192416
  N   -1.10072466789481      2.88245927790583     -0.12065170957953
  C   0.34863685993780      0.91857694840689     -0.16643334135839
  C   1.40837429372254      1.82719669784122     -0.40233385832469
  C   2.75640931656104      1.70696425019036     -0.25495355641567
  C   3.42790067461028      0.54033445012427      0.19490632229202
  N   4.68462437721225      0.68281225727051      0.68668713733387
  N   3.00122543113474     -0.69805644355775      0.08189609639515
  C   1.80220028608990     -1.13328034198221     -0.28808715555760
  N   1.81630748215678     -2.36059506089877     -0.82241345494075
  C   0.50296956245654     -0.51318870457599     -0.09244586074614
  C   -0.63090625007041     -1.32151502936432      0.04058182224014
  C   -0.90078366476702     -2.70972171691013      0.18133648882990
  C   -2.28312441620970     -2.81087056430975      0.27592540252809
  N   -2.93296826342936     -1.61575719227877      0.18829444652396
  C   -1.95617431173084     -0.71304948541877      0.06141752483038
  H   -0.54590145470540      3.37981078837499      0.55721989090137
  H   -2.06315153340915      3.17859251636777     -0.05535790052432
  H   1.07957526308238      2.80622858782378     -0.72643453162742
  H   3.36679559074160      2.57962221518635     -0.44939215340406
  H   5.12666237764550     -0.13315482259888      1.07176940301551
  H   4.98847139130912      1.57600247065657      1.02620221883030
  H   0.97218154293262     -2.78086580218729     -1.17044614126480
  H   2.69795104277894     -2.82509155314071     -0.94267230930100
  H   -0.20846917565900     -3.52357180177224      0.31649561874939
  H   -2.84961858720412     -3.72087403279915      0.41569313703298
