31
Coordinates from ORCA-job ./opt_b97-3c_parallel
  N   5.47634399603001      0.66178176841409     -0.09343876640839
  C   4.47242358962158      0.07487769552447     -0.01573307997149
  C   3.24831582447690     -0.59294432215284      0.07103810530246
  C   3.02723001449148     -1.98493383246232      0.21301524295514
  C   1.66208097818397     -2.24561591971492      0.23109301572235
  C   0.97147942379201     -1.01699837979907      0.11486446886935
  C   1.97552901340300      0.01891027720826      0.01181795453653
  C   1.58334089881970      1.32191388659264     -0.20260058020631
  C   0.24180550673726      1.67299073763992     -0.20898456311750
  N   -0.07783754998588      3.04649750856178     -0.43793289086963
  C   -0.78314809173572      0.70991615964064      0.00783262909994
  C   -2.12702587500008      1.14440872365421      0.33659326110401
  N   -2.26083530354124      2.38240033895227      0.87716080475766
  C   -3.33416678676924      0.44746304873757      0.18730297543247
  C   -3.60158651466855     -0.87986020771867     -0.09188641068585
  N   -4.91663825804355     -1.26795457349983     -0.19536093144270
  C   -2.63517228076187     -1.90340623022586     -0.16772545407876
  C   -1.28589274533804     -1.79091419107524     -0.04204954539945
  C   -0.40264265010646     -0.68705506810991      0.05231538414227
  H   3.81034259965306     -2.72161121193745      0.30080933119185
  H   1.23246770228031     -3.22626585897569      0.35785406281988
  H   2.33271696883117      2.08554849502477     -0.38141420049486
  H   -0.62335985156412      3.16806758538398     -1.28179897433959
  H   0.76446787576447      3.59415739793296     -0.53280185736054
  H   -3.18413775577763      2.76210693703150      0.98337306870327
  H   -1.49621582543002      3.04091583996086      0.74333453054675
  H   -4.21569424514109      1.05473678695477      0.36956020472691
  H   -5.10126267067845     -2.15272142113121     -0.63301970271722
  H   -5.59802891506980     -0.56122910089577     -0.40776243724425
  H   -3.01946161173327     -2.90749004583411     -0.30674009943134
  H   -0.76913507963970     -2.73897125358152     -0.08616113164297
