28
Coordinates from ORCA-job ./opt_b97-3c_parallel
  N   6.06075118748379      1.01172897378647      0.00344723549164
  C   4.93809248359501      0.71200525274586      0.00262739367415
  C   3.58237541920672      0.33908268327433      0.00118707785450
  C   3.10349630194225     -1.00352945837923      0.00024908743096
  C   1.71849818602610     -0.94614823749455     -0.00078435895033
  C   0.70347783765184     -1.92806958835873     -0.00237479242297
  N   0.97248270950897     -3.24084563417566     -0.00372905631569
  N   -0.59201192946429     -1.60665259075416     -0.00253713237432
  C   -0.99648179172112     -0.33235623125121     -0.00174642260981
  C   -2.40238075546185     -0.20060975264660     -0.00026236713216
  C   -3.11180507445187     -1.42948834607503      0.00099625296790
  N   -3.83514384616783     -2.33979308178546      0.00268901785543
  C   -3.23845438731355      0.96534001328103      0.00081731892714
  N   -4.57296757548811      0.77668107235134      0.00506104264015
  N   -2.89739247215545      2.25596213838161     -0.00227564749584
  C   -1.66753106951469      2.73370602396339     -0.00462953180205
  C   -0.41808338891054      2.13620221894027     -0.00374016472474
  C   -0.04278616900783      0.79402089883758     -0.00176340259137
  C   1.31470279758417      0.43500832347338     -0.00059122526275
  C   2.49302886482127      1.21427370525372      0.00061351303189
  H   3.73698945533071     -1.87589641711105      0.00039999876133
  H   1.91099790245900     -3.59085347290580     -0.00306868913856
  H   0.20420455676525     -3.88838972976527     -0.00410446928161
  H   -4.99419659065813     -0.13448443513106      0.00627235245040
  H   -5.15176897035574      1.59623306626244      0.00397565322493
  H   -1.64452933144541      3.81991859072197     -0.00737270525955
  H   0.39933052028801      2.84430983580154     -0.00519655557487
  H   2.57169401065333      2.28804094895889      0.00139824702621
