30
Coordinates from ORCA-job ./opt_b97-3c_parallel
  N   -2.18748608577800      2.98433646452090     -1.13815569423074
  C   -1.85020618304198      1.96662013246320     -0.68496215376265
  C   -1.57843709524439      0.65289115174126     -0.24275602470584
  C   -2.73920740738641     -0.19069448780875     -0.20422104761636
  N   -3.91107228688695      0.33958280694911     -0.61153708919106
  N   -2.85666740714929     -1.43396952621642      0.24726766754202
  C   -1.87942302228373     -2.30906217558187      0.41375428153069
  N   -2.30013391354414     -3.52544452731237      0.86283778980026
  C   -0.50633150431022     -2.19560380836745      0.11229821339999
  C   0.26616807035886     -1.07162407142893     -0.08306924818213
  C   -0.23374368587167      0.30929828495852      0.03422472347305
  C   0.69849909791975      1.32827280849059      0.32262239371703
  C   0.29852078898741      2.58747560131296      0.80925554264236
  N   0.12514743981034      3.63427239788449      1.28790486930702
  C   2.11419592427890      1.13387488568513      0.20976766000309
  N   2.94390046595369      2.14938159890119      0.47905590222297
  C   2.57373231357447     -0.12240577892282     -0.19533876746455
  C   3.84301782128776     -0.66251720639962     -0.45443574500584
  N   3.76464265889918     -1.97907417383926     -0.74283706983151
  C   2.45967797223085     -2.31596112389319     -0.65354297528911
  C   1.65559656546042     -1.21092032365656     -0.32498181194788
  H   -4.00196090461002      1.30818576824730     -0.86039218989407
  H   -4.73730517642710     -0.21293319308459     -0.47721552129208
  H   -1.64222538473913     -4.15701804860115      1.28028438246591
  H   -3.25124353292165     -3.58139799274308      1.18125147061043
  H   0.03580370546293     -3.13140547942265      0.12002281754464
  H   2.59198638095526      3.04164529274145      0.78219612059104
  H   3.93685751985750      2.01830576516323      0.45088896297943
  H   4.79967329913524     -0.15955879915024     -0.46349996091098
  H   2.14696283002140     -3.32803564332876     -0.86375349020485
