30
Coordinates from ORCA-job ./opt_b97-3c_parallel
  N   5.25509478355317      0.03447877730338      0.29646555978115
  C   4.14387120606127     -0.29279651758395      0.20278033449228
  C   2.81580025394399     -0.72909994318378      0.08502745313482
  C   2.41425639436772     -2.06913777649618      0.01764383686171
  C   1.01476160893718     -2.14631316515698     -0.09076248679551
  C   0.31662111273715     -3.35933491835278     -0.14299369916626
  N   -0.25192317137070     -4.37465989720508     -0.18276131015246
  C   0.50027832889333     -0.81614337175909     -0.10625438054706
  C   1.64510652975490      0.06432303988905      0.01754253501200
  C   1.43229032435951      1.44041647903220      0.08374649686779
  C   2.48752848349403      2.37332665828315      0.25998189422840
  N   3.29614545654984      3.19293265553393      0.39908829726831
  C   0.13779849707424      1.94547312586423     -0.01909703731175
  C   -0.98603669169206      1.12541027339211     -0.16010192440860
  C   -2.26442888878732      1.78209693622575     -0.36538057593379
  N   -2.22411651778164      3.07763154600692     -0.77135838201174
  C   -3.51673770867627      1.26706968220228     -0.06622331421170
  C   -3.83089194478349     -0.04624983992011      0.28674818317560
  N   -5.01212727654644     -0.31262120899470      0.87873913835343
  N   -3.14148232710880     -1.15180241618427     -0.05184431303304
  C   -1.87914996242460     -1.23594222160626     -0.32911234950446
  C   -0.81122047088381     -0.29724129235771     -0.17789710652979
  H   3.07644888474212     -2.91819224994913      0.04985871570248
  H   0.02000123207145      3.01188891300091      0.08533175741198
  H   -1.41336236111114      3.41562228902501     -1.25549730624679
  H   -3.08503530870203      3.53728476048817     -1.00543520581494
  H   -4.34842352453296      1.96133713575027     -0.11352468205307
  H   -5.56318294697521      0.40621080713919      1.30768790275651
  H   -5.25729810948356     -1.27376026443919      1.03819476439339
  H   -1.58591965997999     -2.21921542834710     -0.67171441431809
