28
Coordinates from ORCA-job ./opt_b97-3c_parallel
  N   -4.53292098411772     -0.98385923405931     -0.47708512530135
  C   -3.32005088733133     -0.44020800630237     -0.16255353936130
  C   -3.25338422444098      0.96564464260016     -0.05261982670590
  C   -2.11558459334592      1.70837397314564      0.08535554605249
  C   -0.75319431465663      1.35076770302378      0.10914520838737
  C   0.14621394087532      2.43710222066863      0.13778266659983
  C   1.51376351148112      2.28297260081970      0.08799879124716
  C   2.04504721200566      1.00516371517953     -0.00795200441678
  N   3.34084409359470      0.66283557179339     -0.10826341848744
  C   3.33649574369908     -0.68980029925631     -0.20471681021348
  N   4.52607433665175     -1.35841442765199     -0.30760535162546
  C   2.04995816564884     -1.25646622338947     -0.13470292755166
  C   1.16379148425859     -0.16715834938756     -0.01680518015235
  C   -0.23262480172263     -0.00009107276091      0.08628325982191
  C   -1.08112625844457     -1.14148014596256      0.32593485058940
  N   -0.48579541820214     -2.25531762193194      0.80242181826479
  N   -2.37917896938984     -1.32820694396962      0.09300606219218
  H   -4.53457456155114     -1.96590609469623     -0.69033401106462
  H   -5.20991761618563     -0.41899319635776     -0.95578586223125
  H   -4.19315360415520      1.50118893939721     -0.10467882645956
  H   -2.28519465065202      2.77768393034517      0.14178090660044
  H   -0.27104834355036      3.43452648492883      0.17421962337289
  H   2.17532954840213      3.13874312043069      0.10332645506818
  H   5.29138806493283     -0.78086314008578     -0.61443899232697
  H   4.49797352805143     -2.26393646679003     -0.74261063151445
  H   1.82509803476293     -2.29873042249103     -0.28585060982285
  H   -1.08799063804991     -3.01368337092322      1.06713082567873
  H   0.43831938303164     -2.19824554151674      1.19651156166001
