28
Coordinates from ORCA-job ./opt_b97-3c_parallel
  N   4.25332799095821      1.53104355205139     -0.01534065534523
  C   3.07175619566523      0.85170884334731      0.00241744982636
  N   3.24810013970875     -0.47843447407308      0.01549491866228
  C   2.25064890626994     -1.36145661662617      0.01341223467249
  N   2.69984051973705     -2.65640504537502      0.05610129068122
  N   0.92241752276919     -1.26275856983833      0.01110664221900
  C   0.21254930694182     -0.10443371988383     -0.00604735323058
  C   0.72181099776290      1.26861876784915     -0.04185341936012
  C   -0.21298635303049      2.32617899688960     -0.08312816020632
  C   -1.58840626070529      2.15634715288249     -0.07721729172241
  C   -2.08226086623811      0.86764309241166     -0.02793537452936
  C   -3.38168219649285      0.25995290902030      0.01110537670800
  N   -4.56643015471799      0.89046144096036      0.02469957136701
  N   -3.32876784561171     -1.08883538314928      0.07591572120438
  C   -2.01159795957519     -1.39035149380237      0.07532372635098
  N   -1.53629220967719     -2.62430893610647      0.13061808552944
  C   -1.17433601623917     -0.21948182037775      0.00712941511302
  N   2.01296038482766      1.65223849218824     -0.02831318082122
  H   5.08392261818343      1.02156661919531      0.22246606397116
  H   4.21590580385734      2.51586403956169      0.17163826346249
  H   3.66528290706964     -2.78440548956645     -0.18839036832265
  H   2.05886222259841     -3.36586654044013     -0.24822605168934
  H   0.21092621066410      3.31951217405010     -0.11348523822843
  H   -2.23453334100816      3.02593575364243     -0.10121798772986
  H   -5.39525904506890      0.33505344870601     -0.09267652266019
  H   -4.62187585929339      1.86246911298230     -0.21401090660187
  H   -0.52045371896088     -2.69318048188272      0.14995734170014
  H   -2.15250790639430     -3.41183003641672      0.22739609837962
