30
Coordinates from ORCA-job ./opt_b97-3c_parallel
  N   -5.08580213043495     -1.00793528504601     -0.15642246087287
  C   -3.95214939105261     -0.74033899886192     -0.08753229222863
  C   -2.58993966619228     -0.41830567490724     -0.00801242295238
  C   -2.24658978499261      0.96134245573668      0.13613841016431
  N   -3.25815745968387      1.83655633555161      0.32550633110699
  N   -1.06167054689436      1.53979495308369      0.09242216814221
  C   0.15545898096450      1.00999960610852     -0.01160591351991
  C   1.21019459221653      1.95630831613079     -0.12525519865668
  C   0.87238572039514      3.32917959197400     -0.19663760371251
  N   0.65883516561540      4.46883499479546     -0.26363549883503
  C   2.56810656126443      1.59817987599605     -0.13247156572785
  C   2.90323430196670      0.27450123251436     -0.02570074977333
  C   4.16041399172864     -0.40530551768600      0.01544453440098
  C   3.94552975060457     -1.76087649295989      0.12635951359815
  C   2.53642667666724     -1.98271127472385      0.14991227176549
  N   1.89076077666552     -3.13977110891695      0.24347068003633
  C   1.87476723604888     -0.71022288045531      0.05903618723854
  C   0.51039809571177     -0.42112039073096      0.02166015602531
  N   -0.33286640314687     -1.47324676314606      0.01549800118930
  C   -1.66090895353328     -1.48858969292769     -0.04733959314786
  N   -2.17855245705666     -2.74662484373228     -0.11728497035279
  H   -3.02492970506979      2.81301704915558      0.30101810287489
  H   -4.22209892557547      1.55848245815775      0.29860657190148
  H   3.31815559701909      2.37304377414325     -0.20712916336334
  H   5.12487050978201      0.07645870346172     -0.03387860126014
  H   4.69784070526149     -2.53107114726269      0.18508213923423
  H   2.37159985531545     -4.01374761868306      0.35744491500807
  H   0.87681827941526     -3.07476652234631      0.25693072302393
  H   -3.14998964609447     -2.87762761617430     -0.33921920649963
  H   -1.54917775671547     -3.47454434484893     -0.40000107330730
