30
Coordinates from ORCA-job ./opt_b97-3c_parallel
  N   4.94073540558105     -2.24855743716724     -0.00315776836921
  C   3.89197974520586     -1.74100497348326     -0.00220112895890
  C   2.64960472418265     -1.07650681936032     -0.00141721972337
  C   1.51705194614463     -1.90266819476940      0.00136244807819
  N   0.23012065213820     -1.67957474784442      0.00087579824784
  C   -0.40978700533738     -0.46589390065320     -0.00063398886094
  C   0.15689265826254      0.87991352067985      0.00271608962406
  N   -0.63190325041268      1.96949242142225      0.00790863187523
  C   -1.96313305915098      1.87196538961357      0.00579979197820
  C   -2.60003834320849      0.65918486638491     -0.00450364050315
  C   -3.97636810592398      0.22989990392960     -0.01523785928910
  N   -5.03784390141501      1.05779012162139      0.01695471467854
  C   -4.01359681993435     -1.16987498452548     -0.01552257194854
  C   -2.69182598883728     -1.64600200743186     -0.01033505247275
  N   -2.24520371489449     -2.89678746266012     -0.01270712951028
  C   -1.79187794750936     -0.50968113141894     -0.00636655348177
  C   1.54939109635173      1.20066373014561     -0.00090609492665
  C   1.85016336750790      2.58242949154719     -0.00218718872310
  N   2.27050830169347      3.66814719334043     -0.00423638139466
  C   2.68212496098093      0.35204935181224     -0.00332997215628
  N   3.89668094894150      0.92594745644309     -0.00730100968101
  H   1.76463412797188     -2.96140695953644      0.00367433612153
  H   -2.49668099282916      2.81758275694770      0.01631207275768
  H   -4.91142731080038      2.03710513096805     -0.15928251273369
  H   -5.95900304083462      0.69687004833353     -0.15061884140488
  H   -4.90401813246834     -1.77829759790783     -0.01792933447999
  H   -2.86188680804628     -3.68877088791278     -0.00773638873998
  H   -1.22868467688810     -2.99318695307413     -0.00544584690132
  H   4.72952168629924      0.36393435469564     -0.00702903774311
  H   3.99157190672916      1.92720622316045     -0.00678228835864
