32
Coordinates from ORCA-job ./opt_b97-3c_parallel
  N   4.89361397407301     -2.13351454686302      0.01575911526613
  C   4.09172731998196     -1.29271363925940      0.01168482429536
  C   3.20284397454487     -0.18685563686351      0.00597206729416
  C   1.85108111593428     -0.48545506921741      0.01061723714042
  C   0.68108515702764      0.28701810441470      0.00765060197754
  C   0.66168483180331      1.74374048646039     -0.00230248888191
  C   1.80044798466790      2.56809839700272     -0.01024705371671
  C   3.14829071231446      2.32053114546493     -0.01110776317602
  C   3.83549367712960      1.09771895406281     -0.00393659746821
  N   5.17851715436947      1.13567985848318     -0.00653880908752
  C   -0.56518581278976      2.41244711278885     -0.00433376429228
  C   -1.78869814315592      1.74948825032743      0.00278218915260
  C   -2.97693437806134      2.52192678876037      0.00035568590679
  N   -3.91999210455850      3.19762794605403     -0.00194852871917
  C   -1.81488793372757      0.35098354937654      0.01223473726679
  C   -2.88135954613227     -0.56253166724446      0.02056622352509
  C   -4.26105129614129     -0.34317285254482      0.02164538290934
  N   -5.42344926893677     -0.28404674056032      0.02350184238257
  C   -2.32097489565952     -1.87017531932012      0.02831499986504
  N   -3.01838447937568     -3.00921202565435      0.03735665246051
  C   -0.90219017139656     -1.76465728478617      0.02481602445784
  C   -0.09152529966708     -2.89836109855306      0.03105624581140
  N   0.52565875767201     -3.88780359594409      0.03675740654819
  C   -0.56187271910457     -0.38731047487031      0.01472452090182
  H   1.67623445880966     -1.55094536604931      0.01821077156860
  H   1.56114676400420      3.62497705718405     -0.01708214241527
  H   3.77982078264563      3.20074746383185     -0.01836698022213
  H   5.66777982847292      2.01101455434942     -0.01361437556379
  H   5.72806725137540      0.29305552264148     -0.00195924950104
  H   -0.57061017692766      3.49225505769899     -0.01164821620109
  H   -4.02255489350054     -2.99312593576588      0.03943913382401
  H   -2.55491090818865     -3.89976004590746      0.04265478418945
