33
Coordinates from ORCA-job ./opt_b97-3c_parallel
  N   4.42853854073071      2.70466400505993      0.90945759113893
  C   3.66036603379651      1.87529924600547      0.63236257939515
  C   2.78661070364933      0.82082828194310      0.28395682961540
  C   1.44742058626639      1.14462006593734      0.10679884076206
  C   0.29847852180010      0.38485364690198     -0.08715798349152
  C   0.21246433025651     -1.07276799597949     -0.06622861814630
  C   1.34660530102563     -1.88060513781384     -0.48069089937267
  N   1.07144768634471     -3.05719725901124     -1.09517518449252
  C   2.70580939292587     -1.58565112912303     -0.37110146492188
  C   3.38461503433174     -0.45103498074983      0.05809820616107
  N   4.72659355929241     -0.55128269035820      0.23738525707364
  C   -1.03037488969848     -1.67139435673100      0.18467845480453
  N   -1.14616383788889     -3.06554068704827      0.37243049082676
  C   -2.23167058597588     -0.91006339957703      0.23270990509959
  C   -3.44636516802581     -1.56140879134066      0.53834490081685
  N   -4.40030329001067     -2.17245527149985      0.79867223968917
  C   -2.20549389957417      0.45274712714849     -0.02230955487828
  N   -3.23437405852667      1.31202951026643     -0.05596254203370
  C   -2.65229994340964      2.52131036620761     -0.24250805916628
  N   -3.42291143659903      3.62150083589909     -0.39763091834702
  C   -1.23315747219729      2.46374118728766     -0.31413129386307
  C   -0.91571089531439      1.12091518458435     -0.18030833020467
  H   1.25328514170013      2.20382932744321      0.20151090965366
  H   1.82053546335971     -3.69978492948237     -1.27767745257709
  H   0.14092991942755     -3.44502316990473     -0.99315143668169
  H   3.35707748736576     -2.39872152749335     -0.67505148467836
  H   5.28379824762211      0.27718489397620      0.35425986307584
  H   5.20866503533069     -1.38130558895946     -0.05132402962564
  H   -2.09599628331002     -3.34936517274701      0.56626778473337
  H   -0.54305864352800     -3.41041241442634      1.10532073877487
  H   -4.39327549993616      3.52302144986978     -0.15390284876473
  H   -3.01638056771479      4.52730083016128     -0.25368067315937
  H   -0.57585299882055      3.29805949355530     -0.49730983211398
