27
Coordinates from ORCA-job ./opt_b97-3c_parallel
  N   1.79568975691175      3.74122835609692     -0.06710944289860
  C   1.37560168743629      2.65676103766682     -0.04362269604857
  C   1.07182416304589      1.27956233441282     -0.02520318568387
  C   2.16691333415659      0.37464444572287     -0.04368859509069
  N   3.42164502145355      0.84186484420229     -0.10438963529627
  C   1.88003418060425     -0.99774900959501     -0.00218312681670
  C   2.66882395858472     -2.14862626841413      0.01509317654335
  N   1.90382242633771     -3.26913978630425      0.07886798219186
  C   0.62552592818328     -2.86088415344934      0.10085311876688
  C   0.51936838246943     -1.45246886527518      0.05560780110607
  C   -0.58768155642676     -0.57595302951499      0.03610858457429
  C   -1.86795314370728     -1.11300751348593     -0.00060173612104
  C   -3.13554575062949     -0.52015306147377     -0.00554206777218
  N   -4.21363608568281     -1.36257749749117     -0.01931148557976
  C   -3.39126043939515      0.85579929902054      0.05553009707384
  C   -2.46285890350197      1.87437242936504      0.11227422901570
  N   -1.14188240255064      1.89168459009259      0.08762188427415
  C   -0.28048031524917      0.87260512185484      0.03451827739470
  H   3.60328814141246      1.83114465086759     -0.09816053021340
  H   4.20363571000066      0.21653742917210     -0.07461246838465
  H   3.74584953133019     -2.23023612788082     -0.01568276967034
  H   -0.17032415372371     -3.58869697628222      0.16161950235727
  H   -1.88905223606674     -2.19542244510264     -0.03379103190153
  H   -4.07575739116122     -2.32066940947238     -0.28517648343540
  H   -5.11402798500695     -0.98568918440301     -0.25272583588901
  H   -4.43022911781822      1.16397564850506      0.07126536143323
  H   -2.89059959150667      2.87212315016535      0.17604700547070
