31
Coordinates from ORCA-job ./opt_b97-3c_parallel
  N   6.03001962996233     -1.87747258319230     -0.39505921871453
  C   4.97144257795747     -1.40607823452003     -0.28965789876161
  C   3.74255897971621     -0.74817121833302     -0.15997805002832
  C   2.46339339978135     -1.29745147865665     -0.11339754007335
  C   1.52604742171269     -0.24692555995276      0.00562566287763
  C   2.24926723460662      0.98964605977263      0.04957235936567
  C   1.54212283216134      2.15771619021797      0.25915558153393
  N   0.22157402523000      2.18536292487213      0.32230882727809
  C   -0.50360609004027      1.04784028185080      0.19889554581929
  C   -1.88697092720359      1.28354211445988      0.10479773403617
  C   -2.27153010490890      2.64712529850613      0.15209448082012
  N   -2.75525748815505      3.70483635443093      0.16522092414969
  C   -2.96658208981426      0.36738394519467     -0.11770256780157
  N   -4.17610702082524      0.90971478024487     -0.34511875896009
  C   -2.87719974794694     -1.03909727972680     -0.10609453611697
  C   -4.07197378843251     -1.74415785695911     -0.32298377112253
  N   -5.06719354302588     -2.32576772186354     -0.49833956661285
  C   -1.71640772234875     -1.82197608447143      0.20903930815704
  N   -1.92742852866407     -3.13079847688805      0.47887798538872
  N   -0.44738153922993     -1.47631987162467      0.24226462279708
  C   0.13142431205015     -0.27883065126179      0.13483623863563
  C   3.63013648510317      0.68448402352677     -0.05480002675812
  N   4.67346407921357      1.52212133655795     -0.04376056928954
  H   2.23088558554515     -2.34696874598759     -0.16565428349419
  H   2.03413568459401      3.11853304722486      0.38132592326869
  H   -4.30197102176725      1.90701956825278     -0.33519951769035
  H   -4.98941442946514      0.33034744234452     -0.45390285830452
  H   -2.83527737037512     -3.55386561068040      0.41690723196791
  H   -1.11900608592985     -3.71932126629340      0.55997163511416
  H   4.54884683332651      2.51672299735594     -0.04299594867311
  H   5.60770394197218      1.17157612119874     -0.16436237090821
