29
Coordinates from ORCA-job ./opt_b97-3c_parallel
  N   -3.63520859326480      3.08462305391753      0.37569737578867
  C   -2.99575298809310      2.11933377694112      0.25867942990782
  C   -2.30370019127601      0.89476442245808      0.10924616455976
  C   -0.91704536952361      0.95806175507722      0.08555951858138
  C   0.08610243513874     -0.00412403807934      0.00662488542199
  C   -0.10882403465875     -1.45747840040258     -0.00244155289672
  C   -1.35124635765846     -2.05550263799930     -0.18740809714237
  C   -2.64250557488811     -1.56605439969944     -0.24991553257470
  C   -3.12458206003166     -0.26633680703221     -0.06964009634959
  N   -4.46081071341037     -0.08454237199763     -0.08143970397163
  C   1.03238000198896     -2.31081399589644      0.09860169593698
  N   0.85965503520303     -3.69436878931732      0.18670829085274
  C   2.32838004436385     -1.80344235063812      0.05456786196345
  C   2.53747550590528     -0.43835745507346     -0.04282289535823
  N   3.67712601819308      0.27196628355328     -0.07268115183422
  C   3.21627138197995      1.55261346298681     -0.09142084540305
  N   4.06652771199078      2.60008459310875     -0.08659839871408
  N   1.87169172251059      1.73499059501453     -0.07657734392642
  C   1.40700858511273      0.47256548121004     -0.04720044351418
  H   -0.51902854841239      1.96394824047930      0.14751384565015
  H   -1.30660784125519     -3.12513835781296     -0.34993969963237
  H   -3.40561013519429     -2.31144513724154     -0.44143177194499
  H   -4.86413585415188      0.83305664445507     -0.00608866536866
  H   -5.08034162474867     -0.85633507196953     -0.23908524077803
  H   0.19607497385581     -3.99237624056081      0.88310804939381
  H   1.72767058698975     -4.19042880350510      0.30520427811729
  H   3.17634148720371     -2.47326417647330      0.13217422453530
  H   5.02144193794679      2.41467554515029     -0.33363933642846
  H   3.69080672778645      3.49801104334534     -0.33112750277092
