27
Coordinates from ORCA-job ./opt_b97-3c_parallel
  N   -4.78070569954452     -2.04574496810847     -0.11908602597002
  C   -3.71455870386328     -1.58195188033964     -0.07047313045554
  C   -2.47033894443439     -0.93867459222448     -0.02556664776321
  C   -1.20132315487473     -1.52260574326177      0.05582776325385
  C   -0.24824782997137     -0.48936278439014      0.02501543351959
  C   -0.96018318302813      0.76504169633313     -0.05146417448563
  C   -0.22335633463613      1.94431188019602      0.07355700091982
  N   -0.82074556930176      3.16238848971124      0.18576317737152
  N   1.11552772642558      1.94824882200751      0.06326048459556
  C   1.80918871666515      0.80026131725487      0.01000364367825
  C   3.19719349845960      0.97587133064457     -0.13402685817495
  C   4.21772309190188      0.04475551860409     -0.18935250554209
  C   4.14532522489651     -1.32858594340881     -0.05358009757783
  C   2.98718622080592     -2.07691661789754      0.17569293427181
  N   1.72039616092202     -1.73816731703835      0.21375365641992
  C   1.14779120841996     -0.52496291211381      0.07825399201173
  C   -2.32865141067387      0.48769066646784     -0.10224557886389
  N   -3.36601904421336      1.39303260677794     -0.16922732167714
  H   -0.99059157477891     -2.57576060513445      0.11201425516698
  H   -0.20243035320161      3.90937329359001      0.45717372416872
  H   -1.74134995528364      3.18929355368937      0.59261248825975
  H   3.48230344178913      2.01553981180572     -0.22329383173138
  H   5.20880108235763      0.45687047764041     -0.34086728943378
  H   5.07172177970728     -1.88709845690956     -0.09496954846147
  H   3.14862554655220     -3.14116103917582      0.33537906310834
  H   -3.22664809663344      2.14687197913445     -0.82455339543008
  H   -4.27344391396335      0.96958005784565     -0.29460660767948
