29
Coordinates from ORCA-job ./opt_b97-3c_parallel
  N   5.75996949340676     -0.43148545543706      0.94098721978798
  C   4.65793515306400     -0.63302268937400      0.62798672166758
  C   3.31293592437878     -0.78816893840441      0.27113965094811
  C   2.66000913236699     -1.94796639655575     -0.14240053510109
  C   1.30688027258635     -1.64596381670954     -0.34705567694277
  C   0.23759942430857     -2.43438658570712     -0.72009033029058
  N   -1.00968980306363     -1.99086984969155     -0.68548141453274
  C   -1.26920990210731     -0.71788317534102     -0.33263658732101
  C   -2.63355396056046     -0.49311789447665     -0.02917174878230
  C   -3.46579986036148     -1.63804289369641     -0.06933842967034
  N   -4.27620005411555     -2.47143257042998     -0.02995982375516
  C   -3.26728083424640      0.68971740209558      0.45943124067207
  N   -4.46921943064110      0.57295025720894      1.04629438303584
  N   -2.85569543675452      1.96095695401088      0.34979933488394
  C   -1.69096013665553      2.35394402748910     -0.09824563184312
  C   -0.48782991722764      1.67942263611275     -0.35154922029391
  C   0.51768781010701      2.51446138077967     -0.87333398921977
  N   1.35641092254715      3.20523127519548     -1.29441540749704
  C   -0.20136860340703      0.28064868082101     -0.21320223303496
  C   1.08459852399126     -0.24217168337476     -0.09277376326822
  C   2.37272209939364      0.29412546623011      0.30269310598227
  N   2.69431410296805      1.50362859200430      0.76656866391246
  H   3.12417498602450     -2.91233126250427     -0.26947384697541
  H   0.37360092698654     -3.46654552264539     -1.02316528154900
  H   -4.94661703283028     -0.30912948715575      1.11032199323933
  H   -4.96689427497402      1.42006184591071      1.25405813157769
  H   -1.64174245176047      3.42475212475024     -0.27492478813973
  H   3.66431151563978      1.66455971123620      0.99270810797625
  H   2.18778522333458      2.32285120285792      0.46650949513299
