29
Coordinates from ORCA-job ./opt_b97-3c_parallel
  N   -5.60455255470116      0.04457793177731      0.69025870083449
  C   -4.47173468533437      0.18505993160770      0.47417592319626
  C   -3.08826525937487      0.36723600976069      0.22132091512671
  C   -2.58849923707485      1.68391776645942      0.28798500102168
  C   -1.32548333389632      2.13924590113927      0.04929101215593
  C   -0.08589196395384      1.47025171052291     -0.15736614893367
  N   0.93506025645700      2.30474234304032     -0.32819976559342
  C   2.20399569747899      1.85459323444007     -0.30970499069935
  N   3.14707760309745      2.78235269450292     -0.60572584213292
  C   2.49252707242145      0.53394247265335      0.01324582355646
  C   3.68643508768698     -0.12832661573210      0.33724503478216
  C   3.39452577621766     -1.44730078922041      0.65787767897034
  C   2.01141098294475     -1.66949650344756      0.51760868439451
  N   1.39807182644632     -2.82108043903642      0.88526097244274
  C   1.40218258836237     -0.41131228285890      0.10766818171365
  C   0.09686423560253      0.01428158322671     -0.10591681516880
  C   -0.99290011747133     -0.88865009281838     -0.39202330324768
  C   -0.65516595185056     -2.10710544375613     -1.01668933239478
  N   -0.37490618251444     -3.11796145359561     -1.52398086611304
  C   -2.36310843143541     -0.74687375481583     -0.17520558470290
  H   -3.32346167173385      2.44427314132631      0.51832447616566
  H   -1.19523010824018      3.21216831142398      0.08795431416738
  H   4.11168059476890      2.59267189891671     -0.40844101055876
  H   2.85526084543126      3.74332932903219     -0.57029049325761
  H   4.67589216863587      0.30372067582463      0.34785561593649
  H   4.10436734063537     -2.19641472754541      0.97278744286520
  H   0.60746214447472     -3.14748110866255      0.34906147677020
  H   2.01786296848743     -3.56737357547575      1.15460076250302
  H   -2.94507612136806     -1.63994882618942     -0.36127224449988
