30
Coordinates from ORCA-job ./opt_b97-3c_parallel
  N   -2.98198145867354      2.23625843619061      1.29295329589090
  C   -2.49395550303851      1.32593134191664      0.75520385748616
  C   -2.02438700351138      0.11603503253540      0.19807163475549
  C   -3.06027342671451     -0.86621712113443      0.01152611089824
  N   -4.32850837112654     -0.48399737190609      0.25986798662712
  N   -2.97473187683871     -2.13048878940368     -0.40284109896506
  C   -1.84887324053842     -2.81573644322706     -0.52951550885603
  C   -0.52308356824767     -2.49135551012292     -0.33287071483474
  C   0.08883324979904     -1.25367329324627     -0.08977845793066
  C   -0.63438302205507      0.01900273884306     -0.07341801268999
  C   0.11090090949277      1.21162312209648     -0.25594007986149
  C   -0.49895010034226      2.41346524941565     -0.66519120998986
  N   -0.85078554398367      3.44339996793440     -1.07773391938353
  C   1.53509503182701      1.25231373987775     -0.16326429274285
  N   2.20167296174679      2.42001793966882     -0.33277075959966
  C   2.19233031955936      0.06176877023985      0.12035549864216
  C   3.54333233558557     -0.28759505023155      0.31371705614958
  N   4.62408937699146      0.54186485301441      0.42722146644372
  N   3.70312475060329     -1.63947671320055      0.36391671064258
  C   2.48324586629665     -2.16976748904378      0.21960979597237
  C   1.47887142971932     -1.17944135915368      0.07713397075294
  H   -4.57219077325047      0.44579628092844      0.54894296151574
  H   -5.04802426170870     -1.16807368139754      0.11513033907267
  H   -2.02221969482060     -3.84681514147460     -0.82601990348307
  H   0.15568752475195     -3.32377004990094     -0.45774187850477
  H   3.15768619339585      2.36647145978613     -0.64078254550678
  H   1.68352147910573      3.20939425802629     -0.68600056253428
  H   5.46503940063597      0.05634221837738      0.70003944948539
  H   4.47912315095712      1.39231890528591      0.94834824370723
  H   2.35524996258348     -3.24110113029581      0.24784325373991
