27
Coordinates from ORCA-job ./opt_b97-3c_parallel
  N   5.38134408465239     -0.23851793527445      0.23771124709887
  C   4.23622069969504     -0.39506690897047      0.11811223833899
  C   2.82866975550048     -0.52943138247226     -0.00495220980222
  C   2.37782436114960     -1.81673269535911     -0.26311697505417
  C   1.08009980473889     -2.29162969148880     -0.28569034185767
  C   -0.08683234398161     -1.58408178521842     -0.11269416523874
  C   -0.33516062102235     -0.20493721598214     -0.01371186429592
  C   0.66347619376858      0.85627950293874     -0.04519278607799
  C   0.23028247185395      2.18310743142013     -0.20922356596424
  C   -1.10385990112969      2.55097128610822     -0.25827582854575
  C   -2.07603407395952      1.58759926604834     -0.08750256779036
  N   -3.42422445331519      1.75827940847494     -0.07450485706573
  C   -3.92707636723878      0.53000313185809      0.05950001943293
  C   -2.93268510675578     -0.48314488240210      0.12242774203053
  C   -3.18807078196399     -1.84934448324682      0.26668288026611
  N   -3.39927277489649     -2.98915416616719      0.38161708541284
  C   -1.69441599423758      0.19919566605545      0.03622370510559
  C   2.07154202553199      0.66566747597545      0.18867046362262
  N   2.78135774799432      1.74865829273071      0.56491909525672
  H   3.15880932833039     -2.55250852282940     -0.40308252761855
  H   0.96952984470872     -3.35750512445653     -0.43287189470926
  H   -0.97465863572478     -2.19825011092932     -0.11094232863184
  H   0.96048652221108      2.95991538799138     -0.37660747890307
  H   -1.38607311343163      3.58147393190827     -0.42491160100577
  H   -4.99205539910685      0.35980081066234      0.11579368132653
  H   3.76753084382974      1.67340921066581      0.74786149519495
  H   2.31375818090036      2.55131737815732      0.93993120877427
