30
Coordinates from ORCA-job ./opt_b97-3c_parallel
  N   4.04392641147027     -2.40182658181518     -0.17566219247818
  C   3.19453850438900     -1.60909856003700     -0.08908384010693
  C   2.17866883064384     -0.64092709386719      0.01111901078639
  C   2.57060840770657      0.70642793867532     -0.20368607518686
  N   3.77424884304245      0.94005979290944     -0.77598109651752
  N   1.92552864044360      1.79756808154331      0.17194088799852
  C   0.64384929440343      1.94486712041409      0.44647969967885
  N   0.35842721674350      3.05289181715017      1.15753463901890
  C   -0.45639660831947      1.08390699100144      0.05346799455466
  C   -1.72639651875818      1.66027017912080     -0.25287103578694
  N   -1.86939684809687      3.05865958695495     -0.39718286886511
  N   -2.85395114453743      0.98413437116862     -0.38989012543771
  C   -2.80343811372050     -0.33912069139127     -0.21021585104745
  C   -3.80680427301458     -1.31361961516206     -0.23840087301100
  C   -3.14813308307933     -2.52043577706581     -0.00809290640286
  N   -1.80775500379679     -2.38138557741469      0.16406580978913
  C   -1.56444681763169     -1.04830944950182      0.04385616560164
  C   -0.36142046202073     -0.34287182475030      0.13732574747596
  C   0.87318917771609     -1.10912697539822      0.30083973806770
  N   0.72294546545746     -2.38762358556733      0.63138018067790
  H   4.42248569132541      0.18881548993286     -0.93260392150111
  H   4.14535234701314      1.86896373510438     -0.69310790813519
  H   -0.59399992069235      3.39295712871073      1.16056770165671
  H   1.10226694084537      3.72034690438198      1.26758413757035
  H   -2.81839825393861      3.24439742264298     -0.69023956427505
  H   -1.22418448132856      3.46099059763592     -1.06336359794635
  H   -4.85872113383899     -1.16022475650680     -0.40815152834143
  H   -3.59317321283522     -3.50320520031309      0.04754665893298
  H   1.52353155908383     -2.99889275829449      0.62471920361567
  H   -0.24250470107468     -2.78530312526180      0.57965430301451
