30
Coordinates from ORCA-job ./opt_b97-3c_parallel
  N   -1.98924503893073      4.04039768867887      0.41207140448646
  C   -1.61116972447434      2.94781826864942      0.29170009812480
  C   -1.21779423088889      1.59381486424547      0.14398107894734
  C   0.13793101528353      1.37013739062731     -0.01900200437373
  C   0.92582765876502      0.21697999374317     -0.05359684953852
  C   0.43794276271525     -1.13775088238602      0.10229624333842
  C   1.36667851539437     -2.15292011239337      0.38064291970828
  C   2.74059884213459     -1.94114063593650      0.42195494613427
  C   3.26047422405868     -0.70189227093432      0.12690629410658
  C   4.56857300212024     -0.20192711525585      0.04697719610786
  C   4.47277251014891      1.15662020535137     -0.25550902963180
  C   3.11890948224974      1.54093958908772     -0.35643351895777
  C   2.33099512882740      0.41307840976629     -0.12887166649801
  C   -0.92136458876450     -1.53186943123114     -0.13962187613527
  N   -1.11523861631092     -2.85226652818602     -0.39299963811800
  C   -2.10319163260334     -0.74241429163645     -0.09954624060196
  C   -3.30970010490071     -1.44371469260646     -0.31486037011636
  N   -4.30913931905781     -2.01459155267475     -0.48994313904406
  C   -2.27398852736268      0.64104330008273      0.14625886611453
  N   -3.52622472379772      1.10448729668576      0.33874984315337
  H   0.71223938814567      2.28493375460518     -0.04431083453506
  H   1.00861222274759     -3.13607585684620      0.64611780698035
  H   3.39322267982235     -2.76655739814978      0.67900078717495
  H   5.47526605927940     -0.76809289408285      0.18799568860457
  H   5.30969929239299      1.82429801208828     -0.39889645946766
  H   2.78313664646625      2.53639775234186     -0.60095044544915
  H   -0.34776463569883     -3.38612528307981     -0.75456567136013
  H   -2.03264947382125     -3.19113919476823     -0.62517227841157
  H   -4.32142438461854      0.49495743787577      0.27015170083910
  H   -3.70260876432219      2.09332996463874      0.37062744671803
