26
Coordinates from ORCA-job ./opt_b97-3c_parallel
  N   -3.57889185015679     -2.60353321510137     -0.00565383160050
  C   -2.87788067032260     -1.67725780733391     -0.00479012797888
  C   -2.12124292201058     -0.47731050083210     -0.00335102870759
  C   -0.74587168892915     -0.60006867649895     -0.00358767060983
  C   0.28427112878547      0.35420528207752     -0.00166974459651
  C   0.06116017292338      1.78731905152518     -0.00204587243283
  C   1.15964535238348      2.66758869675720     -0.00128252943071
  C   2.46882166141678      2.22921949714509      0.00094342703100
  C   2.72319761402538      0.86705574320374      0.00167888659074
  N   3.92688958933883      0.25270948653628      0.00342726708468
  C   3.65118028091380     -1.05976895148869      0.00271131390495
  C   2.26538942363844     -1.34740653496248      0.00053509320928
  C   1.69523791841844     -2.62346032649321     -0.00080529254856
  N   1.20631522438392     -3.68034601093145     -0.00202317725645
  C   1.62156948298485     -0.08616483438619     -0.00017494725051
  C   -1.20337246671799      2.41227606782791     -0.00417499302499
  N   -2.44629128764199      1.99758657546240     -0.00231817567873
  C   -2.89042432383777      0.73519292372458      0.00017100590638
  N   -4.22592198961401      0.63933494494340      0.00568069849804
  H   -0.40936743709034     -1.62706420535266     -0.00511410783247
  H   0.96012746882150      3.73034090540403     -0.00215839720277
  H   3.29314894774806      2.92871894009007      0.00185674048178
  H   4.44032290377772     -1.79692820187881      0.00381750214640
  H   -1.14303723183104      3.49788212573811     -0.00715879324421
  H   -4.75575481703140      1.49292078863966      0.00669789325321
  H   -4.70548607967637     -0.24416663051541      0.00770463358906
