31
Coordinates from ORCA-job ./opt_b97-3c_parallel
  N   -2.94946516534516      3.87411922719276     -0.38882302074779
  C   -2.46099089957049      2.82659797835203     -0.26940847715360
  C   -1.93063859334105      1.51862365141193     -0.12922459896353
  C   -0.56755964018593      1.43476218922885      0.06746027429555
  C   0.33523337192171      0.36545468356802      0.10534608383988
  C   -0.00637923725203     -1.03078171685260     -0.03280873408152
  C   1.02413144203918     -1.95273881703252     -0.27615260204932
  C   2.36722046394530     -1.60080355449178     -0.30350284539081
  C   2.73812599704915     -0.30460591484913     -0.03214737395207
  C   3.99846390250797      0.33137871317927      0.04942513069755
  C   5.23874246098768     -0.29785666902332     -0.10416766319339
  N   6.25649240485081     -0.84705413583479     -0.23595748521696
  C   3.75398650698067      1.69558867698444      0.31111494379848
  C   2.37817329868984      1.92769273908429      0.38252408510711
  C   1.71188292289843      0.70968242701024      0.17952946618816
  C   -1.32722722171894     -1.55954002922385      0.18851925323430
  N   -1.38953422918055     -2.87533247536123      0.49468655906260
  C   -2.58110557776140     -0.90094739260534      0.06874512850512
  C   -3.71653650589856     -1.72658447455366      0.22355938164790
  N   -4.65608482251702     -2.40176736377627      0.34851766342627
  C   -2.88187697897923      0.45738559764960     -0.18622228738632
  N   -4.16197123781299      0.79195865448226     -0.43073574690449
  H   -0.09210585108629      2.40332897406982      0.11821569446258
  H   0.77505114639179     -2.97327918615983     -0.52371288582713
  H   3.11444726391440     -2.35049272895940     -0.52960367030354
  H   4.52277937340720      2.44069805212983      0.44111432870557
  H   1.93601812600417      2.88885377845539      0.58964599194569
  H   -0.57373491297672     -3.33377958429594      0.85291014975846
  H   -2.27155538087922     -3.31747659241549      0.68699718821116
  H   -4.89351902855975      0.10350574539071     -0.41834551338295
  H   -4.43447625422353      1.75732887924534     -0.49682096693329
