27
Coordinates from ORCA-job ./opt_b97-3c_parallel
  N   -1.54543111851055     -4.11374521357979     -0.31470545563872
  C   -0.89688310813494     -3.15416986972362     -0.23193003884658
  C   -0.04404877567623     -2.02727566076180     -0.13754263573735
  C   1.33819937744248     -2.23227242446731     -0.11273215076223
  C   2.16236170108910     -1.13580211933699      0.00872616552278
  C   3.56738800269865     -0.93841636742866      0.06984882363279
  N   3.90827112820038      0.35070437253566      0.17008379519146
  C   2.72774180161616      1.04037489551832      0.17018324501374
  N   2.66611077602289      2.36037331814302      0.25028142364157
  C   1.59712125933100      0.16796588477626      0.08007504842533
  C   0.23622295112186      0.44690834519531      0.02011145141892
  N   -0.12924446907242      1.74200795099844     -0.00134457321854
  C   -1.38040374121016      2.21329615911759     -0.06870285608606
  N   -1.43824153845742      3.56726348832481     -0.19731538846798
  N   -2.58279063989777      1.64784380367033      0.01553515332302
  C   -2.78023362289564      0.33162064783321      0.12361152808385
  N   -4.06705703953584     -0.01435786649695      0.33215784091053
  N   -1.97298435814671     -0.73272746541585      0.03323879325362
  C   -0.65022449448636     -0.73371840384414     -0.03513532987433
  H   1.72702595626301     -3.23870326043044     -0.18005866293766
  H   4.32961148950182     -1.70399815458625      0.04102642328255
  H   1.74004084104617      2.76988728787786      0.24201740912252
  H   3.50538722177100      2.90713478365222      0.33295080359317
  H   -2.33129305498878      3.96418332916508     -0.42491276562337
  H   -0.61521512291586      4.04611595176276     -0.51114616501489
  H   -4.31256652676395     -0.98693459775054      0.32534996017073
  H   -4.77619068581186      0.69388287465139      0.33966183022112
