28
Coordinates from ORCA-job ./opt_b97-3c_parallel
  N   1.04600905759626      4.41516308385861      0.42965199806640
  C   1.15553182350952      3.26160019652460      0.33968225320236
  C   1.30061009699677      1.85542143764293      0.22406439876550
  C   2.60622512628732      1.41539161867503      0.44125036531616
  N   3.18553381376051      0.25050247620341      0.26753009166618
  C   2.58919170445461     -0.88229313132714     -0.10416252724652
  N   3.46554384784940     -1.82928994035245     -0.49064396859535
  C   1.19090990848194     -1.21883047434961     -0.07968036671521
  C   0.96721769451785     -2.59096387145697     -0.33511944979331
  N   0.93502493865101     -3.72547171305848     -0.59133908016592
  C   0.06471201795305     -0.38149536248536      0.09281778899242
  C   0.11386060647087      1.09448134532174     -0.02073181524916
  C   -1.05216013932243      1.79134398452437     -0.28034379198699
  C   -2.32797252661602      1.20135531726212     -0.29422444682338
  N   -3.40643966842961      1.94970731297651     -0.58811027863012
  C   -2.41789145029756     -0.15787857720937      0.03352421265285
  C   -3.48311868667803     -1.02546792753931      0.27154566515834
  N   -3.04733123727772     -2.25705030075696      0.64365657885273
  C   -1.71006635733670     -2.21467025244289      0.62153607148935
  C   -1.22304205836354     -0.92656449757962      0.25142968581292
  H   3.29434106692174      2.18921840517471      0.76686251044387
  H   4.44106167725140     -1.61059414865042     -0.40155527381750
  H   3.18705040969256     -2.76586809729170     -0.72171393553996
  H   -0.98779858483036      2.86021393544167     -0.42434093497079
  H   -4.33224760280236      1.57411768469767     -0.50683480239895
  H   -3.32441764164738      2.94280774994755     -0.70560890515597
  H   -4.54309453517175     -0.82470342349740      0.20609661451855
  H   -1.14209212252139     -3.08146258685332      0.91043392855142
