28
Coordinates from ORCA-job ./opt_b97-3c_parallel
  N   4.88752311805302      0.90601853857434     -0.10676472948713
  C   3.73337669810383      1.04359313621679     -0.08965515876363
  C   2.34885533764513      1.25496374343166     -0.07322515061361
  C   1.70170453242413      2.51637844451768     -0.10085797388395
  N   0.37446971980439      2.41541448292006     -0.08642823716588
  C   0.08815258918836      1.06798873645152     -0.04650965019521
  C   1.31025835709706      0.30963370636059     -0.03994023061448
  C   1.26194592746222     -1.08757688006870      0.04917514559910
  C   2.42858985230397     -1.87404140369200      0.18096578169946
  N   3.32563080858795     -2.60208504118523      0.30082150568660
  C   0.02023132521373     -1.73525223059459      0.04874158215966
  N   -0.03210612771859     -3.11402357915563      0.10865270871562
  C   -1.20245636123806     -0.98778358612677     -0.06884591415902
  C   -2.35289632044297     -1.75026915941287     -0.34934657848880
  C   -3.68257232695603     -1.42595877187648     -0.28761542660768
  C   -4.21550531040259     -0.21412824853974      0.16046478411332
  N   -3.64591600344718      0.94952238103071      0.32951354716224
  C   -2.36416756134035      1.29041400961686      0.07714642034063
  N   -2.19214407536392      2.60030687648835     -0.02110839881877
  C   -1.16489229805082      0.45415393999072     -0.00733431337059
  H   2.19140395888050      3.47706041924519     -0.14117382167729
  H   0.86354211046841     -3.56527763498698      0.21160119308430
  H   -0.71271062973126     -3.50286532904562      0.73857533565252
  H   -2.14625136605504     -2.76715609857587     -0.65602970775489
  H   -4.39561942117497     -2.20516008223644     -0.52308832930775
  H   -5.27929011935800     -0.21293951924487      0.38628119749986
  H   -1.22921822467531      2.97770437534584     -0.10261610506568
  H   -3.00198398347946      3.17670016795095      0.13757412736037
