33
Coordinates from ORCA-job ./opt_b97-3c_parallel
  N   -3.56462490393060      2.85503738478110      0.59437242946418
  C   -2.89491525645679      1.92624214415402      0.37690752639489
  C   -2.14443745088096      0.76385990088795      0.10600200795069
  C   -2.92425595305591     -0.32512486174465     -0.36419323580032
  N   -4.22430904869084     -0.06657861301571     -0.70687273663514
  C   -2.51260538224885     -1.64562855499444     -0.53773107957251
  C   -1.34872562899588     -2.24868125997259     -0.09430102643659
  N   -1.32252269201277     -3.61747811280596     -0.11658842292076
  C   -0.15973949159094     -1.58297758734679      0.32776455731262
  C   0.75192511229360     -2.39464293748299      1.00691772425317
  N   1.49179446721088     -3.12384609515975      1.54451227773897
  C   0.22627380549483     -0.22165660158512      0.08928338398830
  C   -0.71753505985938      0.89702358663746      0.16430961657498
  C   -0.20664172514258      2.18328601604854      0.34370201494348
  C   1.15037035954756      2.50150026322551      0.29612401597551
  N   1.56017127853848      3.78503503099823      0.50557605360718
  C   2.04715224621762      1.46296738542691      0.02760372597861
  C   3.40338992713042      1.43248933862354     -0.31980734419988
  N   3.82568826480284      0.19891215915129     -0.63616027051515
  C   2.76092677740492     -0.62464105447671     -0.48075120958524
  N   2.89720314221267     -1.91389311627578     -0.83471787255962
  C   1.57365795544348      0.11499754632137     -0.06789546632688
  H   -4.62342155938919      0.82283213263196     -0.46001405825365
  H   -4.87007081921804     -0.83442633970112     -0.71031718860944
  H   -3.25260160952506     -2.31307556406281     -0.96312224283053
  H   -2.20095413375970     -4.10002699261697     -0.06253752801005
  H   -0.55788260077034     -4.08919964819319      0.33498025226345
  H   -0.90473047133226      2.99538985464580      0.48695885367001
  H   2.48578826700263      4.04365732300429      0.21710865788740
  H   0.87663795167162      4.51590806674363      0.41806161153665
  H   4.09657486405304      2.26158883655349     -0.36110470245756
  H   2.40289542509583     -2.62867385015648     -0.32131185913663
  H   3.84156006443968     -2.15594054804388     -1.09222309379038
