30
Coordinates from ORCA-job ./opt_b97-3c_parallel
  N   3.93345107014390     -1.77880109748423     -0.26492557746860
  C   3.12615356021838     -0.67356580071702     -0.09956768488803
  C   1.74359343580864     -0.90535170193221     -0.12954858755000
  C   0.64174068246815     -0.04829268976092     -0.00056550323611
  C   0.73772250917472      1.41380140173261      0.03675090489587
  C   1.96936201162718      2.09808214722857      0.17799903579981
  C   3.26652628208594      1.64230772631696      0.24704566766029
  N   3.82766928039649      0.44234508316031      0.11831964148060
  C   -0.42329101873952      2.18211085444077     -0.02088692360656
  C   -1.71643505271029      1.64410663713545     -0.08208860447751
  N   -2.82132232966440      2.46846589055540     -0.14615070071511
  C   -1.83485214904432      0.26196538796523     -0.09094344326503
  C   -2.93178162424476     -0.62370394450357     -0.08330605246086
  N   -4.26638653125292     -0.29648201908016     -0.20101610267894
  N   -2.54461988314878     -1.89979051350549      0.11213150728385
  C   -1.19460932617376     -1.87892788579016      0.19678762824724
  N   -0.51811530271438     -3.04883477376783      0.40430236692040
  C   -0.66408655092661     -0.56661641582045      0.03752968682324
  H   3.56428556003250     -2.56029112386096     -0.77684808594329
  H   4.89303860632281     -1.55211135610240     -0.46363708681565
  H   1.48696065057368     -1.93357149832440     -0.34454248938278
  H   1.87882316433919      3.17405543138460      0.27464104056207
  H   4.00338549208149      2.42506300077865      0.41332874612568
  H   -0.31601747894283      3.25997324703454      0.00571501594093
  H   -3.65053558140180      2.09606153457231      0.29042127021005
  H   -2.65324459557354      3.42396605457671      0.12271633133738
  H   -4.84661636959680     -1.11744571759902     -0.28850470544222
  H   -4.46624006868362      0.37295643607334     -0.92899898560718
  H   0.34615540061484     -2.96945446932898      0.91706642824784
  H   -1.11363992796954     -3.79008084857745      0.73997071070261
