33
Coordinates from ORCA-job ./opt_b97-3c_parallel
  N   -3.48661690379037      3.31201101693863     -0.44324665703946
  C   -2.89637918849723      2.31700831877220     -0.29435726380006
  C   -2.17568533663804      1.12611030741951     -0.11384169701510
  C   -2.88777878210818      0.01352285481380      0.43148284408853
  N   -4.00532418103069      0.26852814660161      1.15509558099883
  N   -2.61680388705113     -1.25238596021942      0.23328539493903
  C   -1.50443234508788     -1.79186413116935     -0.26614614146520
  N   -1.72000755426644     -2.95046546676744     -0.92048024147684
  C   -0.16152989824005     -1.31181016761640     -0.10026214230123
  C   0.90866731664887     -2.23926143841693      0.02918557945004
  N   0.67234471175452     -3.64039534504804      0.08358352669039
  N   2.18599441243510     -1.91115502089513      0.10307094381515
  C   2.51367448562264     -0.61776429490475      0.09219025335444
  C   3.77515140383175     -0.05219120745353      0.18471089426104
  C   3.59809755544502      1.34855232475717      0.21764023599224
  N   4.61563487229270      2.26515581738261      0.30483558572236
  C   2.23143990813514      1.67311531602006      0.09311957553278
  C   1.50956736963286      0.46355584602280      0.01486652351461
  C   0.16422259110156      0.10043727079625     -0.11951658197268
  C   -0.80480579951401      1.13101895852080     -0.44099296226934
  N   -0.32675018670688      2.23299806639014     -1.03618578765886
  H   -4.38107510772244      1.19932509107959      1.18794142624365
  H   -4.64697267504294     -0.49276566698910      1.28510652589588
  H   -2.63139454531452     -3.36241162330153     -0.81898272336485
  H   -0.92822440927569     -3.55984978060765     -1.08929914273430
  H   0.07254707432405     -3.89803457554189      0.85767120843831
  H   1.57228507819373     -4.08258993152680      0.21431297280356
  H   4.70844574435234     -0.58734339050600      0.25220281803121
  H   4.36064299271195      3.18045565448518      0.63496584605648
  H   5.47422442218346      1.93169345310954      0.70835809418409
  H   1.84474090862550      2.67303968576203      0.20647636182766
  H   0.63650289456840      2.25812167950035     -1.32835201038149
  H   -0.93253968317271      2.99340920169195     -1.28897990336067
