25
Coordinates from ORCA-job ./opt_b97-3c_parallel
  N   3.05978631909705      2.28550243775665      0.27332285727176
  C   2.46781186664406      1.06621199405493      0.07914502429923
  C   1.06735910161451      1.03095836117791      0.09879358722881
  C   0.16057129442481     -0.02950719823641      0.00369232420118
  C   0.54248336842415     -1.45104872560124      0.01460551003296
  C   1.86351222782054     -1.88615564054925     -0.16667069124485
  C   3.04837561102204     -1.18000255066893     -0.30145605806394
  N   3.36103495573184      0.09864760594837     -0.17785839619784
  N   -0.35746688095712     -2.44918185379893      0.15327776128052
  C   -1.65731493210868     -2.16853639436003      0.23278187205204
  C   -2.14888402254803     -0.88684538585555      0.11815275820657
  C   -3.43417742931676     -0.30697979955361      0.10323363257769
  N   -3.37469344412480      1.01875509593931     -0.07612376943383
  C   -2.05409120320469      1.34267609597170     -0.16993326858058
  N   -1.70198339568205      2.64579037510057     -0.36215686875565
  C   -1.22301605099573      0.20162789071692     -0.03887221320677
  H   2.55915678223011      3.00185070461459      0.76681763803946
  H   4.05412065878345      2.25666132433489      0.41738288021016
  H   0.61332111809945      1.99921460053599      0.26503046361637
  H   1.95419305738866     -2.96223697079643     -0.22997276644824
  H   3.91459005136996     -1.80054797705982     -0.51647307683107
  H   -2.31776026941133     -3.01737244833079      0.37873361423383
  H   -4.38492237617111     -0.80982480778193      0.19901886252707
  H   -2.47734110692971      3.23023997985292     -0.63432792074058
  H   -0.86269946420063      2.81526173638821     -0.89206387647437
