30
Coordinates from ORCA-job ./opt_b97-3c_parallel
  N   -5.67233164444667      0.40858386396390     -0.14077832319600
  C   -4.53085869310602      0.17228477513569     -0.11793387707776
  C   -3.14150010176244     -0.04057256062093     -0.07857243075015
  C   -2.67881415324842     -1.35772783022708     -0.08872029626489
  C   -1.40651138968746     -1.86517762185056     -0.03255557774728
  C   -0.16357849914593     -1.20117336369811      0.01825452957135
  C   1.02045827562325     -1.99958330567814      0.05458213394498
  C   0.91672805700561     -3.40961303300036      0.08796671919246
  N   0.86257850650992     -4.57029428539309      0.11744725725467
  C   2.31927245949066     -1.46302345607289      0.04727348988136
  C   2.45239666494212     -0.10481489916050      0.00652050537887
  C   3.56428712601788      0.81109373195089     -0.02587552441478
  N   4.86371325394204      0.49312239504627     -0.04597365895987
  N   3.16648243446209      2.09425489835356     -0.06665273376969
  C   1.81300966419445      2.06209508161698     -0.05599343168853
  N   1.06695313983619      3.15595218361884     -0.08490491535951
  C   1.29295540758186      0.72345446914786     -0.01274257932569
  C   -0.01657431704326      0.24908949545327      0.01623694607883
  N   -0.98448512841795      1.20671095069472      0.05430046189646
  C   -2.30086345108467      1.11900634568725      0.03020542756035
  N   -2.94048046254072      2.31415062663963      0.09059990203034
  H   -3.46255870118640     -2.10321007017993     -0.14060735378581
  H   -1.35273256303727     -2.94441290833701     -0.04475709023186
  H   3.16257554939080     -2.13980199995941      0.06656409423829
  H   5.16987432927224     -0.44765731191540      0.11291273993982
  H   5.54169243646592      1.23045197645842      0.02689163044525
  H   1.48766411973287      4.06467180175081     -0.16363451581106
  H   0.06574677244561      3.00095301083777     -0.09515443457204
  H   -2.40285679416917      3.11813877386860      0.35477008732394
  H   -3.93580010993718      2.35301289866890      0.22416940981800
