35
Coordinates from ORCA-job ./opt_b97-3c_parallel
  N   -2.60972611233381     -3.86953420527243      0.25586414081282
  C   -2.30915990340148     -2.74872086907033      0.15239016031643
  C   -1.97344705831949     -1.38908910246547      0.02115864241810
  C   -2.98720262662078     -0.53938573280829     -0.50224206355844
  N   -4.02563792830110     -1.13434649345614     -1.14614556453830
  C   -3.05947607143693      0.82939963081624     -0.28282932716183
  C   -2.11530707662811      1.71157057136977      0.24481116573965
  N   -2.60826111971456      2.84740393303550      0.78660579690670
  C   -0.67273635902841      1.55547879399074      0.17680120697835
  C   0.15018457047453      2.70714901829873      0.04086770023072
  N   -0.41976014707767      4.01910425446583     -0.06370980564274
  C   1.52923002457459      2.61151140558659     -0.02616991021968
  C   2.15177829761045      1.37946660712800     -0.02157911968406
  N   3.47499260786123      1.12837441584478     -0.16777533830840
  C   3.57613386690674     -0.20823536295202     -0.21119347578972
  N   4.77824926958913     -0.82358463155426     -0.34534731348464
  C   2.31905090456841     -0.87351330763674     -0.07028248551703
  C   2.16246785878977     -2.24076655033014     -0.26287846498564
  N   2.08191913767205     -3.39650282262416     -0.41476401338872
  C   1.35694386072125      0.17977162351972      0.06786615708074
  C   -0.03757857610907      0.26308524677510      0.22164878471033
  C   -0.73644647254351     -0.97380972805890      0.54529798192317
  N   -0.09083747056528     -1.81848081201949      1.35960365733368
  H   -4.13158265465870     -2.13332156471423     -1.09852762913702
  H   -4.86982915278524     -0.61323359139541     -1.29442614318925
  H   -4.03378915797166      1.26830020970497     -0.46842233533400
  H   -3.59315472216182      3.03062702028557      0.71234708559334
  H   -1.97853310052585      3.64200142546717      0.87582268743946
  H   0.31386760529835      4.71160202161996     -0.02924044237722
  H   -0.90251834258882      4.13926751483559     -0.94675223870704
  H   2.13023814757100      3.50315409434658     -0.15466015051964
  H   5.51813721339203     -0.24998586783996     -0.71158066398244
  H   4.77647833575708     -1.77947155600503     -0.65716546724004
  H   0.85568848870797     -1.60837218220763      1.62387955112259
  H   -0.35156883762232     -2.79043719458015      1.40542658335975
