32
Coordinates from ORCA-job ./opt_b97-3c_parallel
  N   -5.25767868396090     -1.46681880518212     -0.64947946867961
  C   -4.23809845511189     -0.94454746417097     -0.42780460784107
  C   -3.01840844052282     -0.32293510097145     -0.17521684792425
  C   -2.82557660784622      1.05393780715763      0.10091000207324
  N   -3.82412353777350      1.95374294180681      0.28273756151325
  C   -1.43107978332694      1.28798003255201      0.19791881877836
  C   -0.69838213993845      2.44411048582215      0.37548274936310
  C   0.68158210797144      2.39273290271961      0.30177003140273
  C   1.40238254278056      1.20156499789471      0.08655961675800
  N   2.71101031462875      1.37093789160316     -0.14716925252236
  C   3.68934706850350      0.48329017313737     -0.24420252933401
  N   4.89204550478247      1.05421548423112     -0.60516402976816
  C   3.71471310736723     -0.88647792962745      0.04665420575929
  C   2.61307509117238     -1.69116411360355      0.31207681309631
  N   2.86665686290795     -3.02969464372040      0.55988702084010
  C   1.26335546521102     -1.31922255692826      0.28737405223322
  C   0.66129327054659     -0.07045211439612      0.09156615610194
  C   -0.74380071573776      0.03502740036730      0.00568762473332
  C   -1.73940412064343     -0.94460612157436     -0.24837162794501
  N   -1.56333263202931     -2.26403753957034     -0.52958230624663
  H   -3.60279757939406      2.92850100869895      0.18903718751738
  H   -4.74221179628043      1.70047822800908     -0.04106228562384
  H   -1.18256554649662      3.40022756060148      0.53889994099983
  H   1.26773911313039      3.29731536468523      0.36880199353483
  H   5.55702496144697      0.47682023709009     -1.08847612601076
  H   4.80413353094843      1.99262551953927     -0.95667964661061
  H   4.68679840861253     -1.36546117837074      0.04647287140762
  H   2.14277920656788     -3.53154102379017      1.04501897628914
  H   3.78384821635783     -3.24550672533655      0.91074209558072
  H   0.58433460559821     -2.11579079675800      0.56001466804515
  H   -0.67631655441751     -2.51775072101075     -0.93629100713454
  H   -2.35129572335539     -2.73059523840393     -0.95173955788646
