32
Coordinates from ORCA-job ./opt_b97-3c_parallel
  N   0.05657425405676     -4.47551157837592     -0.79681452937025
  C   0.31604490363522     -3.35811943530948     -0.60034074914412
  C   0.62934595412792     -2.00440828610081     -0.36176028286042
  C   1.96760096133424     -1.64571390727954     -0.29792819828589
  C   2.31005412626902     -0.34369168337858     -0.01169130686851
  C   3.55935554673509      0.28589998944762      0.19039030424859
  N   4.78312864733034     -0.30475142780582      0.17775835947735
  C   3.31056950783634      1.65351581718100      0.50207130221510
  C   1.95372642151507      1.88077150135032      0.46523229665472
  C   1.28058088680987      0.65996726188004      0.13960221747251
  C   -0.06805288312197      0.36740326312137     -0.04521281003238
  C   -1.01344914108943      1.43168587927864     -0.27552481744426
  C   -0.51238837408934      2.63681065518082     -0.80895545020406
  N   -0.22951606474027      3.66585762354782     -1.27901287977831
  C   -2.40606962964006      1.46667202927998     -0.02028956369773
  N   -3.04066183437393      2.67744853646144     -0.10369996463272
  C   -3.22488243519235      0.39590135026346      0.35801421476580
  C   -2.94008056044676     -0.95555769481373      0.31355984769093
  N   -3.94895285649154     -1.82798697664690      0.64893639667180
  C   -1.70968176174500     -1.56146984870584     -0.01403881605004
  C   -0.43581601748211     -1.04739732552313     -0.14439635403929
  H   2.71420457309937     -2.41637773067870     -0.44374734745563
  H   4.87843601001176     -1.19512903520675     -0.27760172387394
  H   5.58792600059048      0.28989912365211      0.08996485512063
  H   4.06915017229721      2.38284261279864      0.74143654395825
  H   1.48717981523851      2.82575417802391      0.67986674168969
  H   -4.02998767159864      2.67228781854112     -0.27097074510890
  H   -2.54588529304414      3.45062046971754     -0.51579452268334
  H   -4.23620105630244      0.66353320538131      0.64188783586151
  H   -3.83548240642614     -2.79193393060233      0.39117744730589
  H   -4.89551930988881     -1.49715687487294      0.59533868471327
  H   -1.76574716181434     -2.64027487530664     -0.08262889161622
