26
Coordinates from ORCA-job ./opt_b97-3c_parallel
  N   0.17147542096630     -4.11489270731827     -0.85216489136870
  C   -0.18419948604812     -3.02927102712779     -0.64201635599097
  C   -0.66160859056953     -1.72130190842757     -0.39949531968683
  C   -2.03158963330948     -1.48991542388329     -0.29931665172128
  C   -2.50436984775386     -0.23217636254078      0.02904563540883
  C   -3.81436017431485      0.26759832366261      0.17473550322986
  C   -3.73043093206963      1.64664875373461      0.42770362892241
  C   -2.38801853275488      2.02544218559241      0.42493471707023
  C   -1.59890828472304      0.87160137148225      0.18997314874411
  C   -0.22049705331053      0.72572332912040      0.00182175777659
  N   0.53445783554282      1.80650479499515     -0.13554109077996
  C   1.86236491164241      1.85909771868619     -0.28279296526660
  N   2.30531151633433      3.03176001485009     -0.78763030166155
  N   2.83484446377728      1.00161571649417      0.04483113392577
  C   2.59376785748853     -0.27472471150374      0.30927391838764
  N   3.60919917206068     -0.95698352458288      0.87643362893348
  N   1.52924709539340     -1.05884648622210      0.03874200757705
  C   0.28580727882204     -0.68304145313629     -0.13667512762015
  H   -2.71345774264956     -2.31569281713624     -0.45435038495919
  H   -4.72127769484159     -0.31153391327498      0.09011714583463
  H   -4.56824528266468      2.30540643511361      0.59340791909973
  H   -2.00212523619255      3.01941627936107      0.58316932429571
  H   1.65317203004668      3.78669475506518     -0.88741073785720
  H   3.28986638883252      3.22175979910017     -0.78150902268717
  H   3.55263971113059     -1.95848558703654      0.90459168781934
  H   4.49857189196467     -0.50537435126742      0.98257395687422
