24
Coordinates from ORCA-job ./opt_b97-3c_parallel
  N   -4.15396668545738     -1.31494857381504      0.04943751179945
  C   -3.01064440891711     -0.57687848281860     -0.00099910610606
  C   -2.92435421846704      0.84460568856219      0.00017006644691
  C   -1.56828364095505      1.12043861274904     -0.00049066338264
  C   -0.79422383855832      2.28707615550976     -0.00027247723070
  C   0.57641865073543      2.19903954178488     -0.00251393834021
  C   1.27078068069182      0.96464612988635     -0.00321591020395
  C   2.66045581976613      1.05287804629843     -0.00762422850919
  N   3.66170426904536      0.16204506848680     -0.01175691778757
  C   3.52078097180143     -1.14724151017991     -0.00681694613235
  C   2.37507850445493     -1.95570152502571      0.00392163587302
  C   1.05723385571061     -1.56684336639323      0.00603105702172
  C   0.48967510964263     -0.28320857126826     -0.00000573937316
  C   -0.90151895216726     -0.17443490649794      0.00256363118050
  N   -1.80860167593007     -1.18304674894979     -0.00057129545418
  H   -4.99771708833305     -0.88785524395112     -0.28801467591856
  H   -4.04663281086099     -2.28627329009874     -0.18882349105765
  H   -3.74423269453612      1.54491667511946      0.01011026404620
  H   -1.26946288888598      3.26023593352388     -0.00019786697227
  H   1.16385381784179      3.10709062727146     -0.00321585184222
  H   3.03213710569128      2.07436966344752     -0.00860024041811
  H   4.46703907657307     -1.68387240418691     -0.01123573244900
  H   2.56430189209583     -3.02236643314738      0.00942035578214
  H   0.32045105441809     -2.36134519290716      0.01291907572790
