32
Coordinates from ORCA-job ./opt_b97-3c_parallel
  N   5.12137886436937      1.70484098754104      0.23593191887931
  C   4.07163541390878      1.20182501542916      0.16222452250693
  C   2.81959208822836      0.59718752064232      0.07608736916065
  C   2.57922862443231     -0.80144793846527     -0.07775707609981
  N   3.56368802120971     -1.76048927498406     -0.16367775339211
  C   1.19688570707711     -1.00451754167557     -0.07432984030920
  C   0.42765518971637     -2.17146535272355     -0.05850626948796
  N   1.03176650167324     -3.41579625605142     -0.06868965216266
  C   -0.95631592684603     -2.04917291543052     -0.04468558106934
  C   -1.63368758026058     -0.81879940710993     -0.03597289033518
  C   -3.02953057627698     -0.86013091590896      0.08181207225152
  C   -4.00492343322978      0.14237262595637      0.13503919349811
  N   -5.28342380737204     -0.25078844000189      0.44550174222405
  N   -3.91447864925283      1.46252750251433     -0.07786009410112
  C   -2.76819088575949      2.08020336618896     -0.32447642487839
  C   -1.44529023256402      1.68069001712665     -0.32011110296667
  C   -0.84930389191922      0.41906291136714     -0.09555989243685
  C   0.53866524947373      0.28314816300933     -0.00682046431028
  C   1.57481442202627      1.26225122484205      0.13263722702121
  N   1.44062327612004      2.60896777396600      0.27855759083826
  H   4.49439769707326     -1.38841950078394     -0.27615862000029
  H   3.37890706845304     -2.49293741702433     -0.83174698518573
  H   1.89441502027567     -3.46472926243063      0.45151187604969
  H   0.41780483692727     -4.17906060660814      0.16505773358365
  H   -1.55132160865892     -2.95333190068223     -0.00127602870227
  H   -3.42506574139603     -1.86340559120924      0.20225953625694
  H   -5.99381204060669      0.42485613380579      0.22291783431360
  H   -5.53979490218390     -1.21346844860376      0.32315408431888
  H   -2.90947824599695      3.13160514483333     -0.56582229194032
  H   -0.76842316522706      2.46912415393396     -0.61433208352648
  H   0.58951857629787      2.93577702135712      0.70540121296817
  H   2.26310760498854      3.09736513947991      0.59605776003108
