29
Coordinates from ORCA-job ./opt_b97-3c_parallel
  N   5.19368989378583     -0.93469437109116     -0.02862989073391
  C   4.17425894204971     -0.37578629023958     -0.05764004025638
  C   2.95309260008529      0.30608081305150     -0.09194446998873
  C   2.75205970172553      1.69694707585841     -0.18876320026212
  N   1.45487424824393      2.04016392533901     -0.17677008456689
  C   0.74752974631856      0.86835112420300     -0.07984885526062
  C   1.65179075116686     -0.24030021135303     -0.01283316072560
  N   1.24976996651034     -1.49362293108358      0.18217247568479
  C   -0.04959224043059     -1.71584978924796      0.19663457652412
  N   -0.38754269601242     -3.06694935457957      0.42974417941658
  C   -1.06820831060395     -0.72126744233205     -0.01055086418230
  C   -2.41430835212259     -1.17422987160560     -0.32024328798265
  N   -2.55628941811131     -2.37713359021176     -0.93003204488092
  C   -3.59994917671277     -0.49077612554379     -0.05114476292564
  C   -3.77542693734840      0.82552122245422      0.31835733880550
  C   -2.86643819715809      1.85354371328185      0.36037793925059
  C   -1.50221712169192      1.83797745833355      0.03729933857750
  N   -0.90915370743003      3.02437209765312     -0.12376478282565
  C   -0.64023684467316      0.65699402091042     -0.03827985658597
  H   3.52254866810256      2.44771914227549     -0.27165120122039
  H   0.46558190458743     -3.57055617306506      0.62949192150065
  H   -1.04224114924812     -3.18739114037640      1.19063616630470
  H   -1.78970341504255     -3.03862439589429     -0.88422138169004
  H   -3.48133595842334     -2.75806438966739     -1.01749153198932
  H   -4.50818451881760     -1.06757514201280     -0.18181792465393
  H   -4.79719926523566      1.10658233735736      0.54579790964799
  H   -3.26907956233657      2.83260877351226      0.59207469307790
  H   -1.44728158385911      3.86210924080268      0.00990172319844
  H   0.12607245598210      3.05976482317119     -0.20081337015785
