31
Coordinates from ORCA-job ./opt_b97-3c_parallel
  N   4.38859165411694      2.68726964226358     -0.11178177580502
  C   3.74653180631447      1.72610292841373      0.01396422045169
  C   2.93296763282863      0.57668691380993      0.11821674619305
  C   3.49399020849474     -0.54275268895195      0.75831966104075
  N   3.17905902523529     -1.80178718306910      0.64468463078624
  C   2.11710575380740     -2.30437818992641      0.00476685724211
  N   2.31590679299958     -3.53454610048848     -0.49126011612988
  C   0.81214042914622     -1.72304532697493     -0.05660195661609
  C   -0.29173848396846     -2.59515228401787      0.00848082257292
  N   -1.55899627146826     -2.22250428497560      0.01327573744261
  C   -1.79894483841740     -0.91303079496211     -0.00871962591509
  C   -3.05561965180552     -0.27943203453435      0.02738699479531
  C   -4.32204347525733     -0.86583653337970      0.07090531991915
  N   -5.40975868405681     -1.27770494361464      0.11182666773399
  C   -2.82739951361332      1.11861032904036      0.07919551919057
  N   -3.78159573333817      2.05979234138114      0.14739511736831
  C   -1.42549992813553      1.36978049520604      0.03454641482228
  C   -0.91347022941347      2.64865489540149      0.23949185988613
  N   -0.53391267841321      3.74110366222130      0.39581669302415
  C   -0.75748465560082      0.10822678905757     -0.03971832825083
  C   0.57238454844706     -0.30753388120657     -0.13073218884514
  C   1.63157069094615      0.64517098015941     -0.43216196404491
  N   1.32258921025956      1.68008492602422     -1.20744695467785
  H   4.37898140256288     -0.35099810781249      1.35628749639875
  H   1.64427460489412     -3.98282971323619     -1.08475402731869
  H   3.19341413048986     -3.99043780912230     -0.31128529623150
  H   -0.11747049930941     -3.65631911166955      0.14112279827332
  H   -3.52843656987280      3.01029562709049      0.35248942256357
  H   -4.72775280647165      1.78591175426919      0.34585784498910
  H   0.38021353780722      1.80873733350441     -1.53062043101360
  H   1.94310229559224      2.46945749299944     -1.29467372214545
