35
Coordinates from ORCA-job ./opt_b97-3c_parallel
  N   2.73327568583776      3.69106407023474     -0.35218981232896
  C   2.31626087758697      2.61046741994706     -0.23174964299303
  C   1.98139719920954      1.24859816891332     -0.05187721844901
  C   3.04063680678304      0.42545875557815      0.42814136514580
  N   4.17254915459459      1.06497394213871      0.84840451688676
  C   3.04739583653171     -0.96153098113835      0.53546090611595
  C   2.12406705232477     -1.87766527022282      0.04413737679884
  N   2.53661987704957     -3.18628558366000      0.00838409628916
  C   0.79570568148260     -1.60122918680498     -0.36694119345405
  C   0.15689587254098     -2.62831937937463     -1.06186959451707
  N   -0.36618225530326     -3.52527272817282     -1.60316081776526
  C   0.02699285088525     -0.40392273338917     -0.11596300789668
  C   0.60696366413778      0.93434682914917     -0.21372810815253
  N   -0.16002253730683      2.00446791773979     -0.48017371825575
  C   -1.48485101091197      1.93027799315183     -0.43466113891949
  N   -2.18376208030747      3.09155684195547     -0.73071167778272
  C   -2.12193910586121      0.76663640126784     -0.03628256293625
  C   -3.44900238711151      0.49299548476994      0.38317274637631
  N   -4.45463427367629      1.40810650277767      0.43034285108547
  C   -3.53704906158755     -0.86654934850637      0.72023185845902
  C   -2.28974569878283     -1.46464907479746      0.52694307963649
  N   -2.00187954973881     -2.74399052536690      0.85967448178723
  C   -1.34945487983470     -0.43275716097763      0.07623301254853
  H   4.28474276382931      2.04124085466772      0.63308936491680
  H   5.02143382037379      0.53444118454404      0.91054908411811
  H   3.94768613396712     -1.39219707482338      0.95786755222841
  H   3.52204837268494     -3.35202360899428     -0.09011499874651
  H   1.95677767819352     -3.84831231420649     -0.47900074332838
  H   -2.96584900307498      2.95711631035264     -1.35333515086654
  H   -1.56296095513331      3.81622793958834     -1.06091354727959
  H   -5.25605732226118      1.17403895657170      0.99092037637762
  H   -4.17025765696638      2.37275607267689      0.50502291750219
  H   -4.42016967965417     -1.37258656882731      1.07895138191705
  H   -2.79122856722273     -3.30424751810431      1.13605608480151
  H   -1.34294219707778     -3.25214874925852      0.28702244008036
