30
Coordinates from ORCA-job ./opt_b97-3c_parallel
  N   1.02546067567970      2.76544496609463     -1.44946663703770
  C   1.21479468756262      1.73337217802915     -0.92761602593924
  C   1.47952336614013      0.54102163465901     -0.25688751258818
  C   2.81499214810080      0.41676299366565      0.22774472303725
  N   3.55713704852502      1.56340094774288      0.32713426568610
  C   3.44083785276831     -0.76824688756054      0.60960819170725
  C   2.97779754733528     -2.05595268256310      0.38644232616033
  C   1.75436917296767     -2.50878652765034     -0.04786239570305
  C   0.52761899444161     -1.82230847091019     -0.19837917243049
  C   -0.61439694741673     -2.62007081973703     -0.42599953858525
  C   -1.89758503686045     -2.11776549456646     -0.41282584596996
  C   -2.07419710933393     -0.77412775860110     -0.15392933478254
  C   -3.21923461367827      0.02279643124952      0.11673069520215
  N   -4.51127799998471     -0.37114280614394      0.11756054966896
  N   -2.89104505437202      1.28004202206694      0.46585730476181
  C   -1.54525731841943      1.36256039671027      0.40346108238517
  N   -0.95632890982283      2.50385899957791      0.79159052817878
  C   -0.94208125333970      0.09043816833581      0.02037978067486
  C   0.36793835147793     -0.38176619686637     -0.09907765368149
  H   3.21659557451870      2.39415072266986     -0.12654855321114
  H   4.55652351825469      1.46599779373296      0.32313852699617
  H   4.44429792299356     -0.67243583121761      1.00568763156075
  H   3.70383601356041     -2.83661778111162      0.58697851636603
  H   1.67893767778111     -3.58281164180781     -0.16500940588707
  H   -0.46133466468831     -3.67889353275761     -0.58436997941656
  H   -2.73801456193021     -2.78540244086803     -0.56061188289271
  H   -5.20008379097114      0.35969114402697      0.16466353063680
  H   -4.76951001188235     -1.18635723380825     -0.40733155241509
  H   -1.60954163906986      3.24306464318642      0.99871880554387
  H   -0.11014037333756      2.80659759182204      0.32967041967425
