30
Coordinates from ORCA-job ./opt_b97-3c_parallel
  N   -3.68733953937330      2.95452185665436     -0.35709303375398
  C   -2.82963150413356      2.18207677154970     -0.22055854740929
  C   -1.72207789702365      1.32284451895763     -0.06267012093722
  C   -0.42135919957572      1.86139842960470     -0.03518955476555
  N   -0.26418004987206      3.23924650880552     -0.08336487808118
  C   0.72373335817774      1.02254966456307      0.09511058735750
  C   1.93355786704784      1.68154763011666      0.39630592229342
  C   3.22636297788591      1.25235249636937      0.39835956007644
  C   3.68281939574160     -0.01522205083627     -0.04293247649993
  N   5.01876676573647     -0.14066235555458     -0.26666375088857
  N   2.99828194915942     -1.12655851962451     -0.21799718733950
  C   1.69384689819494     -1.34762062988185     -0.00705939871070
  N   1.39567724839914     -2.64356499044085      0.08516553233880
  C   0.57390434938343     -0.41885867788419      0.04355169269750
  C   -0.72441654723561     -0.92597046414157      0.05668976608010
  N   -1.18243442755386     -2.21389612647463      0.06391335700638
  C   -2.52473810737431     -2.06796393793828      0.03639160278256
  N   -3.36526041600836     -3.12672339832423      0.08759286853359
  N   -3.00210248526730     -0.79730684758206      0.00619624813993
  C   -1.88282504627407     -0.06282288241684      0.01982544708968
  H   -1.12752995349862      3.74811282633076     -0.19309881762651
  H   0.43198620852749      3.57037680671152     -0.72905018689142
  H   1.80660731418904      2.71312095573341      0.69966772007806
  H   3.98564269998919      1.96356074048953      0.69817227576843
  H   5.32907452767421     -1.00071704604948     -0.68316057313575
  H   5.58028405584350      0.67592039025186     -0.42035279493426
  H   0.40951591945998     -2.93673471784832      0.12167793378273
  H   2.15051131318631     -3.29446980350273     -0.04225055153527
  H   -4.31708438377042     -2.94511944525941     -0.17631737439347
  H   -2.99119778333711     -4.02149542377658     -0.17095786652239
