29
Coordinates from ORCA-job ./opt_b97-3c_parallel
  N   -3.48417798468551     -2.76927661903137     -0.52553953093911
  C   -2.79198542605147     -1.85170021368580     -0.33573209089071
  C   -1.98316873155167     -0.72027555775578     -0.11120757504888
  C   -2.65013220047837      0.52079470241313     -0.16398695142371
  N   -3.99216253006634      0.51084982038057     -0.39161116849160
  C   -2.09030875096699      1.77057949814104      0.11824111404077
  C   -0.77198302818924      2.15367710883996      0.21213655515678
  N   -0.55319185475509      3.47784329478803      0.49773515165948
  C   0.41380291250537      1.35584555493704     -0.02991553852290
  C   1.58426956672997      2.07835374033307     -0.35052449649205
  C   2.83893511376939      1.50996529902797     -0.43876908206412
  C   2.96442942832720      0.16396189709892     -0.14769418378938
  N   4.05815368826371     -0.64263013571937     -0.12893238709897
  C   3.54319813634641     -1.83694581719516      0.17992899569562
  N   2.20250933902716     -1.89470780539195      0.36215109546513
  C   1.79364367376212     -0.61108185717855      0.15718315248524
  C   0.49003783533432     -0.06229641139194      0.15925789879237
  C   -0.62940999077078     -0.98517833411302      0.25566297196275
  N   -0.33217826132284     -2.23852077874607      0.58935678410064
  H   -4.45053957372971     -0.34243726622894     -0.65973937296099
  H   -4.44142439053219      1.36096795762035     -0.67495177734384
  H   -2.81779205859154      2.55746588823685      0.28285205643751
  H   -1.34469290645264      4.01765262006923      0.79925668143845
  H   0.30395838043843      3.71307904109299      0.96418036049279
  H   1.48587538990468      3.12305440332294     -0.60168827252971
  H   3.69787326597531      2.10049168962622     -0.72770050236894
  H   4.15815578361444     -2.71815642963892      0.28886598665035
  H   0.67429404197425     -2.50715240218674      0.62618507954134
  H   -1.04546078542853     -2.94807130806486      0.55802678284565
