28
Coordinates from ORCA-job ./opt_b97-3c_parallel
  N   -3.96910508171940     -1.76878791766463      0.02804369660056
  C   -2.86014312534366     -0.97769921430510      0.01048707051984
  N   -3.15880823100552      0.32836505328824     -0.00285518854412
  C   -2.25474020402163      1.30218458156884     -0.01297431536065
  N   -2.81612134188701      2.55103547970419     -0.00915737600559
  N   -0.91893983307022      1.32680753136469      0.01312498736487
  C   -0.10015022574586      0.25810140840777     -0.00233120847374
  C   -0.48012902556271     -1.17656284001395     -0.05532518786532
  C   0.53804378512079     -2.13293371139518     -0.11521436251225
  C   1.90706122094754     -1.84593120047648     -0.09628011577397
  N   2.82327999332785     -2.85656808738900     -0.19849024857897
  C   2.28322410080709     -0.49819844683120     -0.02127210602370
  C   3.49854149996137      0.20375301513417      0.03913894258321
  N   3.33188565324475      1.54079372599671      0.12450836334379
  C   1.99090680028943      1.73707007877519      0.11557375039695
  N   1.42883598723600      2.94225681529409      0.18358361728076
  C   1.26658039194688      0.50100115752761      0.02527606913149
  N   -1.72732503880474     -1.67109136946676     -0.03023597222408
  H   -4.84491317277787     -1.33969509243593      0.26149610199151
  H   -3.83584365314667     -2.74348644275605      0.22277440085018
  H   -3.78744500579238      2.59357807621926     -0.25949690254914
  H   -2.23407973042122      3.31007033678532     -0.31181774718970
  H   0.21040553065142     -3.16301008685815     -0.16222616292691
  H   3.76199296208466     -2.66457453734287      0.10143739651441
  H   2.50709142365999     -3.78477839178819      0.02039754592666
  H   4.49991438030496     -0.20443101885801      0.01804736718721
  H   0.41812274416601      2.96117951200495      0.22577192856607
  H   1.99734148525017      3.75736507831046      0.32779018917064
