30
Coordinates from ORCA-job ./opt_b97-3c_parallel
  N   0.77120962284426     -4.10723759552832      0.09608789414487
  C   0.63470284663690     -2.95154878119979      0.04730613056433
  C   0.57374944655080     -1.54714907366777     -0.00085258701186
  C   1.81950053955873     -0.85686388941442      0.01665588658752
  N   2.98750491938768     -1.55026589088092      0.06566018578693
  C   1.79748822937919      0.53024480072709     -0.04826212048776
  C   2.84417695859974      1.47556727116579     -0.06360758646142
  N   4.20381978037595      1.17217896875977     -0.12981927883857
  C   2.26390977083087      2.75704166908441      0.02854541119713
  C   0.88002231045422      2.62148004968306      0.07176455229055
  C   0.54810053625254      1.24770180362825      0.01078057451893
  C   -0.69700056704952      0.58934515720153      0.01206154852710
  C   -1.86908711951967      1.34812426477988      0.06582540665653
  C   -3.22576701046032      1.01591679018027      0.05086055293240
  N   -4.12302429022182      2.04865347904632      0.15924509376494
  N   -3.83283537627567     -0.18050948872903     -0.02632478740456
  C   -3.18121373043429     -1.32500657581509     -0.07499937576975
  C   -1.83354529248746     -1.66205229549710     -0.07042058850199
  C   -0.67585917082792     -0.87919164731561     -0.02624126766021
  H   3.78560066121292     -1.05909599328819      0.43588081596706
  H   2.94013086268374     -2.52960787405431      0.29680170326893
  H   4.78576560137877      1.99460880385556     -0.17324293315199
  H   4.43926685152172      0.55643612262107     -0.89623455122890
  H   2.80936201773099      3.68903662483757      0.03375750852021
  H   0.18976352016146      3.44855950807843      0.12172557998708
  H   -1.69135620545415      2.41414456960029      0.13219826913763
  H   -5.07156937649414      1.80806311050437     -0.06995187863357
  H   -3.83252584660456      2.97745594941918     -0.08578440308325
  H   -3.84684456479093     -2.18272238313447     -0.13127126625791
  H   -1.66583285314009     -2.73052325774784     -0.11108264486036
