28
Coordinates from ORCA-job ./opt_b97-3c_parallel
  N   -5.77763844474737      0.74463963635119     -0.18276916179110
  C   -4.65306153813811      0.45514203970939     -0.10894995076623
  C   -3.28438956566223      0.11212467331970     -0.02178792636594
  C   -2.93558308108577     -1.23216879942851     -0.20499212792382
  C   -1.70528250490037     -1.83686103413400     -0.13834631900164
  C   -0.39124577795440     -1.32807944169067      0.02661243577374
  N   0.55028820619928     -2.29038934292158      0.06255471382129
  C   1.84576933144805     -1.95803793943219      0.09723948499192
  C   2.28265750017219     -0.66337992895190      0.03995979858758
  C   3.57502041158759     -0.06335890772758     -0.00237759948507
  N   4.76226057600457     -0.73176890574859     -0.03001560561231
  C   3.40417223495179      1.32257058785311     -0.10640672515584
  C   2.03200668339161      1.61992501838679     -0.11246186819523
  N   1.51128487782956      2.87907942003191     -0.20985995420429
  C   1.29707841614279      0.39570216746762      0.00799403263345
  C   -0.05699667524291      0.09289763970187      0.10471483986852
  C   -1.01555307488886      1.12246505375982      0.36285646018420
  C   -2.38035409322807      1.14307378801378      0.30060939299183
  H   -3.76521661218710     -1.90026203506184     -0.40001294642983
  H   -1.70341292939181     -2.91143599002442     -0.26158065660075
  H   2.53616227703524     -2.79545473209894      0.14954141520457
  H   4.77042954127942     -1.67427978176823      0.31736933118252
  H   5.58973630365480     -0.21098150798045      0.20154592097202
  H   4.19786687054863      2.04925450488816     -0.19509323328123
  H   2.13632389310735      3.58353436863035     -0.56556146027529
  H   0.58379604429867      2.95113938404626     -0.59580919738763
  H   -0.58422187821813      2.05054094572201      0.71073245201829
  H   -2.83831841850611      2.09637608678690      0.53496685514651
