32
Coordinates from ORCA-job ./opt_b97-3c_parallel
  N   5.47904107755116     -0.74386628827954      0.12075392172556
  C   4.45336251289630     -0.19402407792905      0.08838861820789
  C   3.22774941571018      0.47837277882683      0.04878502962211
  C   3.02304573529610      1.87708458279959      0.13651776927158
  C   1.66750544060679      2.16959143342759      0.08435292510739
  C   0.95020826867138      0.94297461163201     -0.03136029170302
  C   1.94969021081449     -0.11127021193921     -0.02309262805419
  N   1.64235245984414     -1.40435072977390      0.00308977381916
  C   0.37274520910346     -1.74785658641038     -0.01796887531701
  N   0.15743106235332     -3.15002165638223      0.10062562021920
  C   -0.71981031360479     -0.83026728710445     -0.14993613455318
  C   -2.05905375676081     -1.36213890657332     -0.33789141076405
  N   -2.18021416712725     -2.55893274420932     -0.96236066209011
  C   -3.24404396788262     -0.79362377037598      0.12361429344639
  C   -3.52304168757239      0.53563495243838      0.41612633879208
  N   -4.79044144613904      0.82974536596818      0.86718759789836
  C   -2.70311258563548      1.62401084768974      0.10627131599070
  C   -1.39089174668035      1.62927434232184     -0.32609240598664
  N   -0.93514145244055      2.78784914834972     -0.85894361600976
  C   -0.40090375158940      0.57005993263389     -0.14284559523842
  H   3.81472113225064      2.60148141496143      0.24634253981390
  H   1.26289054278701      3.15664771319885      0.22700497461448
  H   -0.37611825908258     -3.38028327845059      0.93042563444163
  H   1.07060730538446     -3.57804416927573      0.18102350945761
  H   -3.07905434022856     -3.00755432307250     -0.96150148785012
  H   -1.35983869699348     -3.16044039951035     -0.99740332659263
  H   -4.09625238592334     -1.46401120538581      0.15739688770179
  H   -4.91506226412126      1.71679540240611      1.32188083905549
  H   -5.29998411344629      0.08356165846089      1.30612585545086
  H   -3.19344054802660      2.59141394824956      0.11984945349433
  H   -1.59533274552455      3.47666077758721     -1.16754559738234
  H   -0.02046192858981      2.80783654832058     -1.27624996998910
