30
Coordinates from ORCA-job ./opt_b97-3c_parallel
  N   -4.86434358427408      1.80465459496002      0.36198649493692
  C   -3.87944963210128      1.19091521100151      0.24517265995757
  C   -2.70077085736963      0.46183676093824      0.10613401896463
  C   -2.60672510107062     -0.93796659884334     -0.11786304017618
  N   -3.66832251650227     -1.77703617571475     -0.20300518465269
  C   -1.23572479736483     -1.28340216410713     -0.13831878642908
  C   -0.58743544944972     -2.49745028601990     -0.24356326316322
  C   0.78969091005036     -2.54481584036163     -0.12644175283924
  C   1.58973701800908     -1.40322317853610      0.06678002382017
  N   2.88188720886812     -1.66399329463714      0.34404466765701
  C   3.88754711105644     -0.81526805055800      0.46788059068696
  C   4.02348354119621      0.53262793874303      0.20493590102464
  C   3.00120214763580      1.41629554731983     -0.18563979752289
  N   3.37881464224605      2.71226869973691     -0.45825312604029
  C   1.64322940912712      1.12204065803110     -0.24546264722457
  C   0.94641495229859     -0.08113873306773     -0.00825710872291
  C   -0.45815651322718     -0.07618015617136      0.03151286503651
  C   -1.38654490961065      0.98880693482375      0.20722807847601
  N   -1.11671542334108      2.30257514078872      0.43362356271661
  H   -3.52787505637171     -2.67900457489228     -0.62054697869357
  H   -4.57239321803887     -1.37119261874210     -0.37380941554016
  H   -1.13896230792847     -3.42191055735648     -0.37002358285967
  H   1.30965835899715     -3.49112990543470     -0.13201348449469
  H   4.80027723690845     -1.29971119821314      0.81107981614822
  H   5.01686437554626      0.94752216659734      0.32784351208779
  H   2.72460640934638      3.28435820003012     -0.96326357968789
  H   4.33375467495435      2.85712062452247     -0.73516550898742
  H   1.02853464689264      1.93438693101464     -0.61131756573216
  H   -0.22586775687587      2.50636232193972      0.85945671287338
  H   -1.87829215170457      2.84804275580725      0.80690209907932
