30
Coordinates from ORCA-job ./opt_b97-3c_parallel
  N   4.10862520600433      1.93331450069643     -0.56494608572472
  C   3.26554399726035      1.14908350837404     -0.39346827619759
  C   2.25320780303314      0.19412092190014     -0.18034908007638
  C   2.66159744821392     -1.06523272545777      0.34947631807735
  N   3.81448028333963     -1.13390476752984      1.03582321335646
  N   2.07641170087906     -2.23610834887177      0.11536258553540
  C   0.82620326656616     -2.44752487394083     -0.22550777484840
  C   -0.30486137179627     -1.62489557247529     -0.15445394794074
  C   -1.59270128329519     -2.27591229531250     -0.09419683631921
  N   -1.68380880737934     -3.66005991372192     -0.10528677025037
  N   -2.73794307351866     -1.62926866667517     -0.05309579738554
  C   -2.70787487849635     -0.29374598498471      0.03712688536893
  C   -3.78661546877304      0.58188084542889      0.14453742606869
  C   -3.27439733627902      1.87322213858263      0.28908669946093
  C   -1.86662339933711      1.86127056589960      0.22893467020711
  C   -1.05770222335150      2.96173214102369      0.51785492622234
  N   -0.36069436091748      3.87255053178526      0.73128557079642
  C   -1.46652003986148      0.48750996954947      0.05483933101035
  C   -0.27123367221743     -0.18538002293824     -0.13849464614584
  C   0.93634201378511      0.54428786829714     -0.53208975016770
  N   0.74915598480851      1.65150381010970     -1.24574451751806
  H   4.39076240656637     -0.32369639325109      1.17796453535670
  H   4.21043300311986     -2.04196813624586      1.20125366718203
  H   0.64701260255941     -3.47065522079271     -0.53691685934251
  H   -1.04907858576305     -4.15629191480189      0.49681757220961
  H   -2.63824975591991     -3.94970151975513      0.04342574496908
  H   -4.82461679196121      0.29527956866465      0.15571909399625
  H   -3.85511154846157      2.76632702182763      0.45943261960670
  H   -0.18413352075839      1.98717600770365     -1.40915118831687
  H   1.49613173975113      2.31069216801211     -1.39269934009037
