28
Coordinates from ORCA-job ./opt_b97-3c_parallel
  N   4.11263811096928      1.30442536593091     -0.08636390562171
  C   2.88189554825036      0.68416372952964     -0.03774124805040
  C   2.89689414782017     -0.71858654222658      0.02648636022884
  C   1.79106431238818     -1.55626079083012      0.04436046506716
  N   2.03684363715615     -2.91836907710670      0.06305865995852
  N   0.48578978407913     -1.27469580331817     -0.00060478169094
  C   -0.09903726068720     -0.05957521842918      0.00890077757304
  C   0.55552793530809      1.27126717155180      0.07169033542364
  C   -0.26534640568237      2.40509045025343      0.16867157670373
  C   -1.65415122294136      2.36439528740576      0.15900135596707
  C   -2.28684350685869      1.14539867149229      0.04636980718544
  C   -3.65548453969413      0.76051303188227     -0.02735912097733
  C   -3.73913605650369     -0.61472882504234     -0.15295908733089
  C   -2.41636778759840     -1.13721045537457     -0.15130022855216
  N   -2.03133201888835     -2.41361880735616     -0.23461786864165
  C   -1.49639606052132     -0.04177730568446     -0.02873093393884
  N   1.87450832856694      1.53722557688665     -0.00002605875855
  H   4.87318729995531      0.80228471580353     -0.50926847120484
  H   4.06074356059093      2.28010588483156     -0.32580580405021
  H   3.87024319924182     -1.19325317102964      0.06489827825149
  H   1.27200784550153     -3.46145427666754      0.42581664098447
  H   2.93293478675716     -3.20561491724821      0.41653504875775
  H   0.25055186372291      3.35271783761141      0.22443149873452
  H   -2.22029326584413      3.28553379833234      0.22323822591815
  H   -4.49384653263914      1.44000190654080      0.00717751488916
  H   -4.64090872351852     -1.20143692947802     -0.23300402009651
  H   -1.02542312182019     -2.55437239411510     -0.28214635973113
  H   -2.68116309521045     -3.14552193914557     -0.45722717079775
