34
Coordinates from ORCA-job ./opt_b97-3c_parallel
  N   -5.75835906815113     -1.02183588764299     -0.38609395616092
  C   -4.68705306151441     -0.58651428706091     -0.24599276188403
  C   -3.37120144437165     -0.13702022897695     -0.09706479262498
  C   -2.93013929303824      1.18994557209986      0.09193032613801
  C   -1.53876320328534      1.17888887368346      0.11096256982505
  C   -0.61182517022672      2.22451128053499      0.20657388900345
  N   -1.00515450080588      3.50401648636945      0.40525886112620
  C   0.76257589927972      1.90728214745888      0.11832992318296
  C   1.66359603321786      2.98446585983143      0.15291576715552
  N   2.36367904023339      3.91572502691961      0.18472916259982
  C   1.25422822675068      0.56879698486131     -0.01492594308426
  C   2.61710989399439      0.41559044321827     -0.21857317287080
  C   3.45383585602047     -0.70898197969020     -0.29911105013850
  N   4.76296113558537     -0.44922311560082     -0.64585994853582
  C   3.11375478729802     -2.03685006212479     -0.07369595137067
  C   1.85636029798121     -2.55026280356010      0.23025451890303
  N   1.78673185372774     -3.91300797543789      0.46520826380969
  C   0.63460528219167     -1.86957186849411      0.24187381350479
  C   0.28778455352834     -0.53407499082929      0.04013925347051
  C   -1.07846235487786     -0.18338497169224     -0.03056474932585
  C   -2.23784812213013     -0.98758469587607     -0.18475269129331
  N   -2.31451848561179     -2.35018439798713     -0.37695500962033
  H   -3.58863153628014      2.03887174122997      0.18028398444179
  H   -1.96731956287537      3.74394956478601      0.25952229266458
  H   -0.33964119769861      4.24857378083202      0.28795592257261
  H   3.15058986632285      1.35026635977554     -0.34097096884840
  H   5.44858004264920     -1.14732410971806     -0.41879553220995
  H   5.09266100761531      0.49149965450225     -0.51961015854761
  H   3.92163497307174     -2.75743417317392     -0.13885351524922
  H   2.62895241179688     -4.35492243142046      0.78995246616619
  H   0.96826568139704     -4.23799017020289      0.95019731528476
  H   -0.20443546166620     -2.50384833530618      0.49168126728886
  H   -1.59415504659954     -2.73524086531329     -0.96928779870688
  H   -3.23025413502898     -2.66306668349288     -0.66567596316931
