30
Coordinates from ORCA-job ./opt_b97-3c_parallel
  N   -5.26445033434503      1.31062413559169      0.58320924400140
  C   -4.22304241805278      0.81896977383771      0.41190907242165
  C   -3.00024464803638      0.15332578789056      0.17681853909778
  C   -1.84277750058768      0.94089371626414      0.15656592731022
  C   -0.51050740149287      0.62979789176590     -0.03153501926281
  C   0.41879605947218      1.72022791248055     -0.10951958427518
  N   -0.04233905014200      3.01594557286666     -0.19560513972516
  C   1.80054392904370      1.48567724369704     -0.04416208067244
  C   2.69381824827139      2.57299080944649     -0.13377540116347
  N   3.41160394452646      3.48456051812367     -0.21298581957585
  C   2.30104062530002      0.17421334821531      0.06666594678243
  C   3.56009888394557     -0.37147147822360      0.13647007553103
  C   3.34008459765162     -1.78401809303682      0.13567898621384
  N   4.29280812860253     -2.73595235148284      0.16132834439731
  N   2.03700387635542     -2.12854608213419      0.06567408995488
  C   1.36920751515846     -0.95513406999181      0.02321544310777
  C   -0.00928536618089     -0.74496234715469     -0.05899067296317
  C   -0.80579015360904     -1.90459297463296     -0.14248966898393
  N   -2.09360018359045     -2.14026943144268     -0.22376724518742
  C   -3.08775619236234     -1.23936038031395     -0.11139927866259
  N   -4.30134734178572     -1.78584241719226     -0.26913294072007
  H   -2.04876426989022      1.98469444718688      0.35034076454171
  H   -0.80986567758599      3.17885263488923     -0.82346998244117
  H   0.67134512945494      3.72120982486808     -0.28585165960388
  H   4.50632379492380      0.14270646933631      0.16559298960823
  H   3.99634237627263     -3.68389166903011      0.31302786918306
  H   5.22881961278135     -2.49879620857584      0.43157069593786
  H   -0.21106940843262     -2.81196857874839     -0.16309574684526
  H   -5.14809545517111     -1.25158569653688     -0.18194259700534
  H   -4.34870404529608     -2.77977257506254     -0.40605949750259
