27
Coordinates from ORCA-job ./opt_b97-3c_parallel
  N   -1.70987474560197     -3.19195048297266     -0.49144294409311
  C   -1.64596118590579     -2.05113496966218     -0.26574439926198
  C   -1.67223001008678     -0.66538845071158     -0.02032938376665
  C   -2.96520127812672     -0.06368470264362     -0.17515837131721
  N   -3.93031336601091     -0.77434009666378     -0.79090926864712
  N   -3.38011492383938      1.11336900428117      0.29609650001480
  C   -2.57643124472853      2.04602959562718      0.77714062636776
  N   -1.30045116544027      2.29877925483960      0.61075989406765
  C   -0.33898358951117      1.48067321686727      0.17153249273496
  N   0.78259644706383      2.08112751110910     -0.21602073862696
  C   1.92515602278491      1.39276103406810     -0.30948185327571
  N   3.00212130223938      2.07232038662780     -0.79355318183644
  C   2.00509848639378      0.07409096388545      0.13609924973889
  C   3.03779897352233     -0.85900188243840      0.32112807527456
  N   4.38103064544086     -0.66875134256914      0.20774722409682
  N   2.54243743074837     -2.09600507643669      0.62465870785008
  C   1.21307328706620     -1.98383569345066      0.62930133343641
  C   0.78517335174658     -0.65163916194277      0.35492247918795
  C   -0.44393504717702     -0.00220881641711      0.21899625750958
  H   -4.86722076132928     -0.41911421842086     -0.72859637014378
  H   -3.79171369632246     -1.73127276549421     -1.06291776874832
  H   -3.09814984732575      2.80338411404573      1.35701447050484
  H   3.71349243099140      1.53938179655283     -1.26500610104077
  H   2.78311146568645      2.96335060964476     -1.20907973819796
  H   4.73604028206787      0.23586806582422      0.47136214759036
  H   4.93190860135564     -1.43953842695596      0.55149086798567
  H   0.59969984539852     -2.83841738469355      0.85903068459568
