29
Coordinates from ORCA-job ./opt_b97-3c_parallel
  N   5.65177438860808      0.40592772983689      0.38837615772806
  C   4.53455235562435      0.11198174601899      0.24575451539014
  C   3.17166339835874     -0.16346991200534      0.09103554475264
  C   2.55905980888415     -1.42429098732069     -0.06830091453893
  C   1.18132938934358     -1.23910903045959     -0.10974615776772
  C   0.11807946303509     -2.14317039408010     -0.21642284768346
  N   0.31183159383031     -3.47186610234979     -0.37632222573049
  C   -1.19271306056458     -1.63680202947634     -0.16298680793246
  C   -1.49154712886907     -0.29086925846820     -0.05966832289224
  C   -2.86038575012817      0.09298553446323      0.15742203786208
  C   -3.77681324148078     -0.96379807648499      0.40275378855056
  N   -4.53100060260133     -1.82543700823444      0.60124779137878
  C   -3.45991645520553      1.35624271631967      0.21270372344322
  N   -3.01386349869811      2.57180318484616     -0.05781933492375
  C   -1.74907523563266      2.83596659371084     -0.37521633705944
  C   -0.60376680960052      2.06491803376165     -0.34908525930071
  C   -0.39956671261552      0.69131864458342     -0.10195453796052
  C   0.89673082633133      0.17719641759717     -0.01205692005986
  C   2.16295119779394      0.83177021281519      0.13883731662082
  N   2.41330057632177      2.15644398222933      0.30456117439832
  H   3.10313938428705     -2.35298917767644     -0.13047271335531
  H   1.22195881294222     -3.86748883845739     -0.23305443445595
  H   -0.46336115154752     -4.10041001742985     -0.26977433018945
  H   -2.00682779968582     -2.34707310711884     -0.18178887110442
  H   -4.50930039624547      1.33500643349175      0.49059157572873
  H   -1.59297744211618      3.86879970981343     -0.67533401881620
  H   0.28012143597533      2.60991273728841     -0.64903070180709
  H   1.69820863651707      2.71765614755126      0.73589590189558
  H   3.34847962043842      2.39558303363439      0.59605378002876
