31
Coordinates from ORCA-job ./opt_b97-3c_parallel
  N   4.29028154111593     -2.13813400838763     -0.11018333582450
  C   3.08884389596802     -1.46058240369995     -0.05465862771257
  C   1.92404822493106     -2.22042903528044     -0.22545463577025
  C   0.62627344381480     -1.79597435106429     -0.10903579480905
  C   0.03467623721020     -0.53065622595185      0.02413575418167
  C   0.73449988213481      0.75151047307957     -0.00895580120281
  C   2.12855062139004      0.85403593576161      0.37224279146777
  N   2.53114379846915      2.02735816132240      0.93293047618147
  C   3.13444786045345     -0.11271878310810      0.27716842965513
  C   -0.02919232559361      1.91420249688023     -0.25169599480811
  N   0.60315336219318      3.17954828087495     -0.46454354441800
  C   -1.42447313799566      1.89387808175618     -0.29411934791700
  C   -2.11909039479519      0.72773262224606     -0.07297152188951
  N   -3.45642600557580      0.53245027026965     -0.05527130411199
  C   -3.59886138500744     -0.80114597524028      0.11507055809616
  N   -4.85384659434400     -1.35209637877501      0.15157270182211
  C   -2.37064768684117     -1.49778010699875      0.19372921159760
  C   -1.38298835513070     -0.51712839095686      0.08626420136951
  H   5.11092677453068     -1.59312093052479     -0.30856255397284
  H   4.28126901188194     -3.02438331395188     -0.58344417271463
  H   2.06674446721353     -3.27767615223020     -0.41821111669150
  H   -0.09885592951349     -2.59448947712588     -0.19696442420836
  H   3.51631428646916      2.18556594194137      1.04519579933074
  H   1.94806554540612      2.84452261458131      0.77188646780883
  H   4.12167646806146      0.24843186717156      0.54952190958054
  H   1.19748699189936      3.16515204312680     -1.28328560054498
  H   -0.08956781943598      3.90102823333886     -0.59668593574246
  H   -1.96964410822873      2.80535815775185     -0.51168516549901
  H   -5.57875704483155     -0.68744247267568      0.36758692336561
  H   -4.94287763418843     -2.22136459254272      0.64832638127916
  H   -2.25542306706116     -2.55909587728798      0.34734749860127
