30
Coordinates from ORCA-job ./opt_b97-3c_parallel
  N   -4.83345611390432      2.05182255791831     -0.01080416301003
  C   -3.94366437700282      1.30363517061578     -0.02300712885601
  C   -2.87177678986293      0.40129617548883     -0.03461368631868
  C   -2.95378692652852     -0.99771956158499     -0.12402527517772
  C   -1.66727997366959     -1.56030452370557     -0.11878452071657
  C   -1.40484590294612     -2.92136504452174     -0.29709930376067
  N   -1.16182176823695     -4.05466074151458     -0.41995756684409
  C   -0.72410563438458     -0.47898832029230     -0.02377943351825
  C   -1.49776736183557      0.73792330633547     -0.00163746761350
  N   -0.94817518447413      1.95020854374149      0.00414251549591
  C   0.36417732781237      2.05100185369460      0.00679160986338
  N   0.85244840083895      3.37898736868007     -0.05629527301585
  C   1.25672132874049      0.93197761609682      0.08215194508708
  C   2.69007753408642      1.14248732910718      0.17559430692663
  N   3.13904668210095      2.27524050367631      0.74146372039753
  C   3.65118828020473      0.29078889959132     -0.39703678294451
  C   3.48825947935699     -1.02895270219514     -0.75728890684718
  N   2.57075757752442     -1.88305993546818     -0.34413241249985
  C   1.46523677445663     -1.57257950872328      0.30144598200520
  N   1.01585971082643     -2.46191226973281      1.18561957021183
  C   0.66159420114115     -0.36777258502820      0.07657996192090
  H   -3.86748038702741     -1.56186398071503     -0.20999783578658
  H   1.41360279588209      3.54295294864933     -0.88341343611782
  H   0.04924773267935      3.99325012573370     -0.08853241188753
  H   2.48449745448824      3.02840269846712      0.92911237135440
  H   4.12083065590717      2.48532450383501      0.71774651598704
  H   4.62744597399939      0.72246669513650     -0.58311451772701
  H   4.26631813116368     -1.47396068034424     -1.36907136225240
  H   0.09769275835704     -2.36527810775115      1.58095320555024
  H   1.41037135860642     -3.38816274489068      1.16916275839410
