35
Coordinates from ORCA-job ./opt_b97-3c_parallel
  N   -5.14642089313335      2.95764992833630      0.00633393552027
  C   -4.16426858750947      2.33525983709298      0.03705503144655
  C   -3.00372561163106      1.52830018246912      0.03691583798397
  C   -1.82893396520750      2.13268879870640      0.44013877537712
  C   -0.51254786056160      1.68301290591920      0.48954212038487
  C   0.36106277112377      2.61465959168073      1.08829015685241
  N   1.07956782765879      3.39854487296223      1.56443670996594
  C   0.02281911583709      0.38138986820316      0.18729680598358
  C   -0.83093502538529     -0.79564023996680      0.17074191709745
  C   -0.23834479606605     -2.02846469728653      0.55028291660168
  C   -1.02639221886930     -3.11872568994883      0.98570207534530
  N   -1.60574803565277     -4.02386375565310      1.42650834146335
  C   1.15445089082291     -2.20516336440874      0.56381130297823
  C   1.95373427097078     -1.15547969368658      0.22238839451389
  C   3.36699898015621     -1.09665774231771     -0.00816528913117
  N   4.23291423233475     -2.10230714396497      0.11256708001590
  C   3.68676553157010      0.21570905283179     -0.39749828483834
  C   4.95157377870303      0.66932934735707     -0.76994356246714
  N   6.00877480334374      1.04608070724025     -1.08091920291305
  C   2.49828347672017      1.00306546424851     -0.38227770782021
  N   2.48307289224097      2.25704250127708     -0.82806763593792
  C   1.39623898922552      0.15735281617349      0.02796573560306
  C   -2.17204374520881     -0.82873442376062     -0.33600935090658
  C   -2.56773617546798     -2.04203233081722     -0.94388751885348
  N   -2.97504423415184     -2.96061151792198     -1.53148197221447
  C   -3.16212573590585      0.18013726732132     -0.41701623463648
  N   -4.35699480563975     -0.14010159234926     -0.93645568333588
  H   -1.95514098989562      3.15343247417909      0.77566619889078
  H   1.54633403778524     -3.18124548560414      0.81400166783566
  H   3.93580114217089     -3.02465730062052      0.36940167217198
  H   5.20859911118875     -1.96801603691312     -0.08657394851578
  H   3.36649192506067      2.68646424600802     -1.05384099290693
  H   1.76213606577749      2.89765789408499     -0.54291450630597
  H   -5.09320265128325      0.54223302859132     -0.98923149113004
  H   -4.56110785042128     -1.08062489996290     -1.22878506491925
