32
Coordinates from ORCA-job ./opt_b97-3c_parallel
  N   4.35511552768902      3.23786962057723      1.40787177584924
  C   3.68667347307053      2.38563799120602      0.99154155276204
  C   2.86080359115221      1.34814118527209      0.47733792226672
  C   3.46705025214956      0.12616142609336      0.23621100183210
  C   2.89879438757636     -1.03997200142643     -0.26624556106858
  C   3.81648025320673     -2.06965279409774     -0.59835957142962
  N   4.51856790622922     -2.94565656132316     -0.89737739178542
  C   1.52447608597078     -1.36865345084091     -0.43242327190252
  N   1.25147755166087     -2.57901127149800     -0.93260091253082
  C   0.38275671259762     -0.54081835311339     -0.09180879373930
  C   0.44752381870393      0.91566614854951     -0.17130311648395
  C   1.53622933252491      1.69401379754802      0.17768401147214
  C   -0.77268575983468      1.64355922379989     -0.44858937132124
  N   -0.68845389286591      2.97063281299960     -0.77666822427286
  C   -2.01116041960019      1.02290138761055     -0.28489154443482
  C   -3.17049940720781      1.78184017430355     -0.56213630894653
  N   -4.05048753186793      2.49173877849137     -0.82752657497650
  C   -2.07167608103720     -0.31875401231398      0.13258356376517
  C   -3.14229363885287     -1.15471676297785      0.43584897906961
  C   -4.50125901001953     -0.82428660056076      0.51158301014716
  N   -5.63791774068229     -0.59261747063555      0.59237353648160
  C   -2.60863558356963     -2.46705003727328      0.67949713028106
  C   -1.25188930684894     -2.46312193926767      0.49104280869968
  C   -0.85025146276991     -1.12318652063690      0.15969515804999
  H   4.53253928451400      0.07996396886317      0.41363374809638
  H   0.30095457342655     -2.83420901909193     -1.14060831688937
  H   1.98700954071782     -3.19681377345671     -1.23343003031685
  H   1.31363847539542      2.74442022613027      0.30625056608312
  H   0.03127711320520      3.24042265783207     -1.42441677489872
  H   -1.56176906148025      3.44649876254179     -0.93827437383009
  H   -3.20551766395379     -3.31069651306156      0.98655828394969
  H   -0.59952832800138     -3.29291499134399      0.70263495652050
