30
Coordinates from ORCA-job ./opt_b97-3c_parallel
  N   -0.71753539695113     -3.84468760582135      0.15179284382848
  C   -0.39279508851678     -2.72733278410519      0.08348414943629
  C   0.07315107024731     -1.40424381614010      0.01269588699160
  C   1.47348823055495     -1.21884601006202      0.03286934193628
  N   2.31836239170482     -2.29066174724976      0.08537068423648
  C   1.96753897997118      0.08351329895076     -0.03502655772740
  C   3.27800761250264      0.58377111838612     -0.08144585629111
  N   4.44111367504986     -0.16722265339277     -0.16342186551579
  C   3.20299001638920      2.00132095445411     -0.00779994861683
  C   1.87538019490281      2.37747327969903      0.05161696750689
  C   1.06415695762151      1.20723500252113      0.02054737331248
  C   -0.32346115252988      1.05445796763890      0.02727848551897
  C   -1.15401121869693      2.19195462123890      0.09476238846428
  C   -2.52233721012736      2.33764609034143      0.08396116790461
  N   -3.53521351146757      1.47729596773619     -0.00487420492055
  C   -3.37339318343121      0.16180300513322     -0.10547790178364
  N   -4.54814540566710     -0.52061412694572     -0.25378867978590
  C   -2.20094535050258     -0.62837559750051     -0.10473976124153
  C   -0.85488770149901     -0.31264204672258     -0.02828226619906
  H   1.90538996356145     -3.18299849004064      0.30699390216125
  H   3.20723128942980     -2.12906677590576      0.53014408459751
  H   5.26885620274900      0.38723552658689     -0.31460279454241
  H   4.39912146161578     -0.92013175041194     -0.83480908826177
  H   4.05263404950646      2.66758549572077     -0.02674121881296
  H   1.52659025071852      3.39667438702921      0.08347509276419
  H   -0.62638089651150      3.13251788339679      0.17459872285315
  H   -2.86220536953611      3.36695177626798      0.16227418502348
  H   -5.38338940092951      0.00611721070851     -0.06847263294044
  H   -4.58225744546277     -1.50674627334123     -0.07224850052127
  H   -2.40428089969579     -1.68964062717087     -0.17976803797464
