29
Coordinates from ORCA-job ./opt_b97-3c_parallel
  N   -6.01181434704741     -0.63487316318737     -0.21810347883429
  C   -4.91115922524942     -0.26207165648779     -0.18315120042303
  C   -3.55360457900102      0.12875574632396     -0.10970404303062
  C   -3.27188144550854      1.45908932438512     -0.38864923455736
  N   -2.19021948458222      2.16791322090352     -0.10700096780027
  C   -0.99541935121223      1.72688699453655      0.19713232815523
  C   -0.43219195764072      0.43740832366916      0.06433189003603
  C   -1.19122396862502     -0.80369290531269      0.03506511392271
  C   -0.47493257502733     -2.00370432950835     -0.09785413385094
  N   0.84670621125031     -2.12305898725129     -0.17178189281473
  C   1.56032448273939     -1.01152266196707     -0.06832847334089
  C   2.96306970034315     -0.88231500306830     -0.07595678259749
  C   3.93242102293796     -1.88349914539413     -0.15894562731325
  N   4.79874779310120     -2.65756044024778     -0.22491032862005
  C   3.25764861385445      0.50152514651888      0.00383621815726
  N   4.47926616004898      1.03961669717322      0.02588809594800
  C   2.03283896977052      1.24195035390442      0.06188810079447
  C   2.01880968374121      2.63536115738285      0.10384297206732
  N   2.08065803884122      3.79901367420286      0.13805011379140
  C   0.96704543161557      0.31832182598684      0.03986942841602
  C   -2.60521308195022     -0.89427709155387      0.23112908809930
  N   -3.12111654754664     -2.05373237034703      0.65729583361942
  H   -4.08699590352575      2.03910461179503     -0.80827422501737
  H   -0.32372937276960      2.50506978505125      0.53955160900388
  H   -1.01118921696699     -2.93514023891804     -0.23133014828250
  H   4.60397650682430      2.03600157305958      0.03827008733829
  H   5.29398357670459      0.45965159465657     -0.06609424620056
  H   -4.11688780328469     -2.19079776061104      0.70760565484058
  H   -2.53484123653492     -2.79862492719886      0.98209812239559
