30
Coordinates from ORCA-job ./opt_b97-3c_parallel
  N   -4.69596798274903      2.50857676029742     -0.73419319124443
  C   -3.73562274733984      1.87399138801618     -0.56333539910900
  C   -2.64331457459513      1.02465330087172     -0.34908459763100
  C   -1.28503402095640      1.32971368282338     -0.41126337155781
  C   -0.54033315232737      0.14052064970669     -0.20762585134471
  C   -1.49592672418122     -0.92088704971340      0.00796579049965
  C   -1.05886050355711     -2.21844491826735      0.29143057234394
  N   -1.93956129237045     -3.21164983048339      0.62854861484668
  C   0.29965504946872     -2.49878441958839      0.11871824692789
  C   1.23958753509268     -1.53114874299526     -0.21166963470012
  N   2.43146418337166     -2.00288987052061     -0.62702657142530
  C   3.54717065773667     -1.34111831466420     -0.81346097062181
  N   3.98821582467685     -0.16104550245882     -0.40594336910599
  C   3.22520684461568      0.80409545590094      0.10295265589795
  N   3.93174887771590      1.81157648466676      0.65205586158071
  C   1.79075036931528      0.92099835420068      0.07473251867010
  C   1.33157847825279      2.19665074326269      0.45996859795294
  N   1.07550800491129      3.27810526447093      0.80838812981629
  C   0.84322364053053     -0.10264261016404     -0.16648683829214
  C   -2.78566455687029     -0.37941176518482     -0.09451634814704
  N   -3.98018186695501     -1.03343700450732      0.03031605564297
  H   -0.90007597360504      2.30626328059024     -0.63810632481605
  H   -2.76031600789831     -2.92491257514050      1.13733063747603
  H   -1.53201987494879     -4.05947311283838      0.98571741851439
  H   0.65216786918863     -3.52033083345708      0.15566918423508
  H   4.30182512724152     -1.91025312069490     -1.35073337408777
  H   4.92915703895354      1.77722287116670      0.54543240221472
  H   3.50080003981043      2.66058440814030      0.97121591126907
  H   -4.01877024148382     -1.96112524449027     -0.36210121052118
  H   -4.79283862534425     -0.48448139724585     -0.20671733638412
