29
Coordinates from ORCA-job ./opt_b97-3c_parallel
  N   -4.23496347757165      1.25016594798467      0.00751548373568
  C   -2.97286331742644      0.67416091675371      0.02134962261972
  C   -2.92710611455076     -0.72002974761936      0.02649112017328
  C   -1.79255132094393     -1.52841230731850     -0.02187777803353
  N   -2.02113372407426     -2.89917402108238     -0.01621691534744
  N   -0.49791373812086     -1.22921790507965     -0.02471766618179
  C   0.11543522930505     -0.02456633843272     -0.02663249376353
  C   -0.51149048088822      1.31173146521200     -0.07227840142344
  C   0.33049250597238      2.44184669413899     -0.12582123852552
  C   1.71278125341182      2.37397152950127     -0.10976672256735
  C   2.32600921984739      1.13866414103352     -0.03821090032268
  C   3.67864117986729      0.73183657567048      0.03626175713347
  C   3.73427882419564     -0.65535709442472      0.12645409940664
  C   2.41220897120534     -1.15630238027213      0.10099832217534
  N   2.01159774225586     -2.44095675633750      0.13954860248701
  C   1.51056032982134     -0.04247526513302     -0.00403416694216
  C   -1.89081972312542      1.54834967054137     -0.03858740273674
  H   -4.97485771956078      0.69209510550462      0.39779013810024
  H   -4.27947967416893      2.20741560423121      0.31197566179720
  H   -3.88129214711214     -1.23374825553803      0.04673141342056
  H   -1.25276061937087     -3.42746798655177     -0.39421054682520
  H   -2.91291288009038     -3.19882867257007     -0.37167465464093
  H   -0.14516372595919      3.41320673651703     -0.16999230716952
  H   2.29735284390214      3.28543979504777     -0.14039866060311
  H   4.53033519474646      1.39540989273047      0.03132933211899
  H   4.62697241533921     -1.25771229231339      0.19651882413288
  H   1.01063457850317     -2.55910380274928      0.25448094857235
  H   2.64315082919340     -3.15358012778490      0.45890604839288
  H   -2.16061016020261      2.59907999024032     -0.06349528808330
