23
Coordinates from ORCA-job ./opt_b97-3c_parallel
  N   -4.23261545686513     -0.42988747469723     -0.37950703672542
  C   -2.99146325961346     -0.05305252660910     -0.02196410578278
  N   -2.89442036474084      1.27355607153222      0.22879818604505
  C   -1.73955877242433      1.90005213229225      0.34072979896325
  N   -0.47358184290619      1.54193832090474      0.20275287040877
  C   -0.02471194917812      0.26593993599941      0.08646047025115
  C   -0.81030322725723     -0.99390964537927      0.17620159758527
  N   -0.19486244797228     -2.19000823685873      0.30698578763204
  C   1.12789194515592     -2.29468675856855      0.21831492334275
  C   1.94349563606706     -1.20756151253544     -0.03810804590173
  C   3.33258252542667     -0.95696628256263     -0.14232398270408
  N   3.61964229004508      0.35128034804980     -0.23847717587201
  C   2.42156477614128      0.99762946831916     -0.18704941211386
  N   2.29519837127590      2.31625209219637     -0.20896884455956
  C   1.32865229816586      0.07484437347328     -0.08790557537991
  N   -2.13392721862903     -1.07062924260569      0.06976232881519
  H   -4.43279901739225     -1.40634440089637     -0.49242889713593
  H   -4.96826053918598      0.25149684949384     -0.39201356244570
  H   -1.85508065721440      2.95946422234747      0.55964262414811
  H   1.53526661132468     -3.29006842193081      0.36436979252825
  H   4.12888296598125     -1.68726432560844     -0.14172768258859
  H   1.36151402758939      2.68417787661191     -0.06557020404464
  H   3.11011008360616      2.90477389773180     -0.19552434996563
