23
Coordinates from ORCA-job ./opt_b97-3c_parallel
  N   0.45022491661852     -2.54105021317425      0.00108771196635
  C   1.05827086039626     -1.35737414720685      0.00095048494807
  C   2.47454252444633     -1.36793217613825      0.00121877819546
  C   3.37068183577343     -0.33743359807387      0.00114303747126
  N   3.21404427765694      0.99648566618118      0.00085015555350
  C   2.05436015485656      1.60342572526894      0.00050174481173
  C   0.70135161500828      1.17228594033016      0.00029567893693
  C   -0.23088944467249      2.24237651324756     -0.00013876442331
  C   -1.59422600311385      2.06762844311424     -0.00037712199159
  C   -2.08754580273343      0.76680203508977     -0.00016324490838
  N   -3.35749277943720      0.30484832668635     -0.00030132544215
  C   -3.19425402731205     -1.03097450535979      0.00006274942150
  N   -1.92727302465184     -1.48998052689824      0.00040182084809
  C   -1.17647673776954     -0.34631876294692      0.00027666210778
  C   0.21474865338486     -0.18666966560554      0.00052132721179
  H   -0.58719343128479     -2.56594755506212      0.00091472941086
  H   0.99225727682668     -3.38688258890961      0.00144566537066
  H   2.92052017466180     -2.35685939741089      0.00151098056812
  H   4.41442304421104     -0.63812041200349      0.00137482541031
  H   2.15283051952162      2.68645098347083      0.00031864500183
  H   0.16712120783251      3.24741243352108     -0.00029374015146
  H   -2.26756046400375      2.91390593062651     -0.00071242199969
  H   -4.03579671201590     -1.70777394924683      0.00005928348233
