30
Coordinates from ORCA-job ./opt_b97-3c_parallel
  N   0.65348875312553     -3.01503664395592     -1.31605629910600
  C   0.08973729061439     -2.10224018420924     -0.85042996744429
  C   -0.61762600957716     -1.04611598833544     -0.26841912984796
  C   -1.96172984915104     -1.36421322834534      0.09058219826697
  N   -2.29722269578698     -2.69631332070228      0.12642264824467
  C   -2.96113708058716     -0.47533210209494      0.45667120845792
  C   -2.97364963521809      0.91269804186088      0.32197825591188
  N   -4.15125452663262      1.54996512574363      0.65526390507101
  C   -1.92424678579551      1.73748967540678     -0.08675275885307
  C   -0.56282072282188      1.49833882164521     -0.25619284219068
  N   0.14057713945613      2.62142029422160     -0.55913123773816
  C   1.46413875741058      2.59204729826390     -0.53483860916319
  C   2.18192947039253      1.47321837988172     -0.16702500725122
  C   3.54785743862650      1.27625872221801      0.11123119663827
  C   3.72951185431490     -0.03196890684545      0.53176014140504
  C   2.49117172136924     -0.71086796365487      0.50137188493012
  N   2.32185687742173     -1.97296202337623      0.97033755178671
  C   1.47945121453025      0.23410611718959      0.05848434162110
  C   0.09578752006516      0.19098350923026     -0.10486184008198
  H   -3.26712042010310     -2.92561666795548      0.00618852936528
  H   -1.66473314014699     -3.35460041597515     -0.29581861282060
  H   -3.87996387971565     -0.92755123065401      0.81259800906031
  H   -4.25853471548254      2.49692436006358      0.33764189280853
  H   -4.99783275026870      1.01133196434359      0.60405354438960
  H   -2.16659568727916      2.78568277808378     -0.21138004749611
  H   1.96826060604761      3.52151094007144     -0.78255620185939
  H   4.31882903367312      2.02649351106141      0.02303632678672
  H   4.66149730409453     -0.48138808190177      0.83965153905717
  H   1.66960717415074     -2.58165446538079      0.49727975026116
  H   3.17292210377374     -2.44575963009848      1.22738424999017
