37
Coordinates from ORCA-job ./opt_b97-3c_parallel
  N   5.41316341825192     -1.09616085456723      0.72324230098315
  C   4.30209528308624     -0.82817621241099      0.49443501909547
  C   2.96450606022536     -0.49628673698188      0.21158406250199
  C   2.60450867502606      0.85725558411360      0.42553174419840
  N   3.57031581109838      1.65484677777264      0.92242393502644
  C   1.34090021950734      1.47430605807851      0.16103984450342
  C   1.32365674682687      2.84784712551027      0.49693875659755
  N   1.41879594407135      3.94540311110083      0.87297341857877
  C   0.09543357966869      0.89337018897122     -0.17917910145662
  C   -0.98706066757650      1.75511475756470     -0.53540060882419
  C   -0.77429421860932      3.00658258024421     -1.14513485759673
  N   -0.74788595904796      4.01471393062172     -1.72622798200239
  C   -2.34082322171154      1.36448164037082     -0.38368083191323
  N   -3.37169882603867      2.23649360039112     -0.63971892699192
  C   -2.56934653088101      0.08351086504025      0.08572916740577
  C   -3.71970972619475     -0.57125099349186      0.59983335264903
  N   -4.94781636387099     -0.04139909742298      0.76481550906079
  N   -3.46927255461764     -1.85232598013608      0.93116676193672
  C   -2.17228422671020     -2.07714431044920      0.64351329098070
  N   -1.63852091304320     -3.26242511251714      0.95036023025428
  C   -1.51273494337375     -0.87368857791875      0.13747551894644
  C   -0.18900289810806     -0.53258094239003     -0.12915277058451
  C   0.77501160031111     -1.53231250323762     -0.50876064634204
  C   0.26294842970468     -2.65209251776062     -1.17448652775169
  N   -0.11734864003474     -3.62841212410181     -1.69230199471403
  C   2.17908208778210     -1.53763889865420     -0.34954707382033
  N   2.84351340231175     -2.65497222928847     -0.71599440269078
  H   3.40207930404025      2.63296530745110      1.07975061757949
  H   4.49465423667447      1.30197681170201      1.09350205229149
  H   -3.10134440878472      3.11247768946405     -1.06197603476500
  H   -4.17399041819120      1.82970585087690     -1.09270082006874
  H   -5.58774181312642     -0.58057012948927      1.32454737067068
  H   -5.01948499727883      0.95852706932801      0.85522687060911
  H   -2.29701648791577     -3.95613862573401      1.26598480236245
  H   -0.85286850935689     -3.61288488470669      0.42732464527272
  H   2.35709864748379     -3.43303563170359     -1.12357663457759
  H   3.84700419020147     -2.68077052263986     -0.71610868961022
