31
Coordinates from ORCA-job ./opt_b97-3c_parallel
  N   -5.12301158510108      0.92839579163789      1.01406663115033
  C   -4.14627484554877      0.42396531095230      0.63404471009929
  C   -2.92703278945208     -0.14082413456527      0.19256960126517
  C   -3.00287040266118     -1.42814436904360     -0.34464067815326
  C   -2.00584329069859     -2.27502340984479     -0.72073775157661
  C   -0.61442335143402     -2.16631493819522     -0.52484940722535
  N   0.08175255153954     -3.24481602494974     -0.94542050762266
  C   0.10480363772028     -1.01973667488062     -0.02656592152720
  C   1.48490366592781     -1.16757293013968      0.31366592500220
  N   1.99200739359865     -2.42419736146540      0.68773343455674
  C   2.37528402805189     -0.09193440782657      0.23028190531871
  C   3.72398691053543     -0.27972455092885      0.60933429311498
  N   4.80766243221312     -0.53053602549618      0.94363172144369
  C   1.92159804563117      1.14798259022194     -0.22977189486322
  N   2.63897722349168      2.25191663000211     -0.43948358186990
  C   1.71484641966681      3.20811577949000     -0.74142867570803
  C   0.40222446193108      2.75869050366272     -0.67337875949716
  C   0.48601705899261      1.37443685431656     -0.36151894439323
  C   -0.42692652500530      0.33740955897342     -0.13099920430163
  C   -1.78764251047673      0.69341883241698      0.23370124846199
  N   -1.98042045691973      1.95032718842396      0.66577747220484
  H   -4.00884448560530     -1.80839144971843     -0.46794949330510
  H   -2.33319757763571     -3.20926201787975     -1.15988905124221
  H   -0.41380398654373     -4.06855013388511     -1.23050159330124
  H   1.06212265573416     -3.32925384923760     -0.70863309376949
  H   2.96849809415587     -2.38829717852219      0.94369821293174
  H   1.46200918075572     -2.86005497059742      1.42838782482006
  H   2.03866375249399      4.20117307725974     -1.01807638279331
  H   -0.47066376730830      3.32412051896896     -0.95313334799774
  H   -2.88268420298545      2.24346227674890      0.99898579963047
  H   -1.18912658406259      2.54819165450231      0.83688617874440
