24
Coordinates from ORCA-job ./opt_b97-3c_parallel
  N   -5.17401595282282     -1.58194508492274      0.39096129468460
  C   -4.10306570850620     -1.13802949009225      0.31298830318478
  C   -2.81113006034423     -0.59169559163859      0.21423780406994
  C   -2.52006595385106      0.79846721442011      0.09106329195208
  C   -1.14086928209366      0.92944781073018      0.04696032671068
  C   -0.26667399522036      2.02503534590128     -0.15080173679224
  N   -0.71703758194075      3.25304232799553     -0.43573789495763
  N   1.06425383545343      1.91227780652978     -0.03136475002483
  C   1.61937403658736      0.72045921814053      0.15528258594898
  N   2.89313769364465      0.73875282755432      0.55501844879942
  C   3.79021529093985     -0.21889289835562      0.55964758995572
  N   3.85842025167737     -1.38682688651038     -0.08078192798310
  C   2.78128122575816     -2.02269288430748     -0.51719586667968
  C   1.43112043267502     -1.73312352728559     -0.34827857114074
  C   0.82984145157622     -0.53525893509640      0.03535738588701
  C   -0.55716331710937     -0.38599687232187      0.12929304614862
  C   -1.61284438495898     -1.31459305876237      0.22228954391503
  H   -3.26758573685256      1.57406407987627      0.04456030641206
  H   -0.05302666381954      4.00442439872380     -0.50017363750497
  H   -1.69551392572535      3.45432927614213     -0.51383026976803
  H   4.68730112217434      0.02230802197615      1.12265616390223
  H   2.99898800137656     -2.95128007225128     -1.03735586411308
  H   0.75427553288204     -2.52321262008817     -0.64909118173576
  H   -1.53334787720013     -2.38330881115726      0.32934184682896
