29
Coordinates from ORCA-job ./opt_b97-3c_parallel
  N   -5.45092458898176      1.28860629729182      1.32815208908719
  C   -4.42897299294438      0.83443488182993      1.01204074750784
  C   -3.20180701976742      0.26750664008165      0.62644445425142
  C   -3.02813510630601     -1.07379525490576      0.17908119227392
  C   -1.67616853786411     -1.26041909487656     -0.05945912471917
  C   -0.92374881206640     -2.34202277036097     -0.58129852175757
  N   -1.51165646623565     -3.42775675015228     -1.10449820780428
  N   0.40797804673012     -2.35483978435549     -0.54689271671057
  C   1.07717524566698     -1.27849168598106     -0.12556285093183
  N   2.32100133569424     -1.49736600015651      0.24905469918768
  C   3.26258497579411     -0.59755872251670      0.52123539998783
  N   4.22253503468815     -1.02318586130505      1.36929321727810
  N   3.47309208742089      0.60975511177301     -0.00890412010558
  C   2.51145522101728      1.39808893415257     -0.44790776924234
  N   2.93371765481005      2.49745706812219     -1.10295283769662
  C   1.08721493670615      1.24760060095497     -0.23980360469690
  C   0.35557156936658      2.43977411987244     -0.42085102416768
  N   -0.14993219626469      3.47074002775932     -0.60991354439901
  C   0.39736561579685      0.05144833651445     -0.00061433701321
  C   -0.98678608420372     -0.02674204482850      0.21706180010235
  C   -1.96094570711776      0.91234278959722      0.62946098519104
  H   -3.82872871828094     -1.78775057826927      0.06749772584222
  H   -2.50780755716547     -3.51078610044547     -1.16766391536108
  H   -0.93307103142504     -4.19229237164231     -1.40347213402732
  H   5.06005092387768     -0.47796082374506      1.45816673006185
  H   4.24944413837360     -1.99898260879222      1.60194151693282
  H   3.91856045255713      2.69079406086687     -1.09518054793923
  H   2.30086536642770      3.23641622273277     -1.35178506760814
  H   -1.79930798150387      1.92832675288496      0.93986930357635
