34
Coordinates from ORCA-job ./opt_b97-3c_parallel
  N   -5.03611863464507     -1.99261742500673     -0.22259541005201
  C   -4.24233937312213     -1.15880904650620     -0.06091967495482
  C   -3.24921692839838     -0.16333699974478      0.08775184547139
  C   -3.64878849371567      1.03749602750098      0.68432859568793
  C   -3.04924862437190      2.26459371574010      0.64282813643646
  C   -1.81280050415566      2.61935029828905      0.07410933467266
  N   -1.64594103643729      3.94007519854043     -0.17260202208915
  C   -0.69111340646013      1.73775279934773     -0.09976342458939
  C   0.57497447009332      2.34348402124800     -0.11704151189119
  C   1.76260565281571      1.62726682266347     -0.14452029855412
  C   2.98235087425257      2.34951971487552     -0.14747864492188
  N   3.94966456088067      2.98992858086141     -0.15979820334541
  C   1.72173698160408      0.22985920495787     -0.09728320636060
  C   2.73927432515985     -0.73583423984521     -0.01090242877308
  C   4.12716338848450     -0.57824332661058      0.01355263597889
  N   5.29060668270624     -0.56286877707675      0.04689264035552
  C   2.11319624399589     -2.00610060943801      0.12018019509796
  N   2.75917959832292     -3.17566646688655      0.25331004868345
  C   0.70654886540923     -1.83449988639256      0.07569442058373
  C   -0.16007643890487     -2.89025270749515      0.34830392395126
  N   -0.83701482365637     -3.81489994520395      0.56618830093301
  C   0.43515817093713     -0.43283451399886     -0.07496213412972
  C   -0.76188186956350      0.29642349116034     -0.16531107995611
  C   -1.98453854935408     -0.43271476621388     -0.47782155820483
  N   -1.87832037610555     -1.46428275261742     -1.31847784754642
  H   -4.63665378801872      1.01692776685095      1.12521059504694
  H   -3.64470192542396      3.08963566120558      1.01417613407932
  H   -2.43374169824076      4.55498148905054     -0.08624856625124
  H   -0.90339762710095      4.26259640209553     -0.76308578750692
  H   0.66653023927464      3.41013643039482      0.00192032259944
  H   2.24418318489741     -3.99885474803708      0.51165930920367
  H   3.74295749790201     -3.17042749536043      0.45902631450272
  H   -0.97355123150351     -1.75147611344177     -1.64672323082022
  H   -2.62139306915716     -2.14021443131464     -1.39990145144372
