27
Coordinates from ORCA-job ./opt_b97-3c_parallel
  N   -5.30717336606812     -1.05196717566374     -0.09086284406400
  C   -4.17053733536039     -0.79775409691334     -0.07322882851459
  C   -2.81377474784130     -0.42121455290809     -0.04678375604300
  C   -1.86619533236357     -1.44788603438316     -0.06569508261138
  N   -0.55557018614345     -1.44494911340619     -0.03504963884904
  C   0.25930135006745     -0.35655370958761     -0.01066872037407
  C   -0.10630895631623      1.08950087931113     -0.02616862928635
  N   -1.34252787607269      1.59332944232987      0.01792881667670
  C   -2.51421267228164      0.98150058700177      0.02688034223595
  N   -3.55950600514450      1.82716302319205      0.10943010497739
  N   0.84218161820415      2.03326963634924     -0.05955668006203
  C   2.15108636913362      1.74356922832271     -0.05632032006725
  N   2.97656700635529      2.81057858137564     -0.14271597150574
  C   2.60831244599071      0.42021186606014      0.00188415220660
  C   3.83730160660966     -0.25715066378069      0.01062689283760
  N   3.69645278335950     -1.60149169380555      0.03801587850088
  C   2.36484144563430     -1.83132407112552      0.04148019893224
  N   1.82062355609963     -3.04214940359827      0.05948278551693
  C   1.61459207902240     -0.59828873388535      0.02399700332116
  H   -2.29594525715122     -2.44504169231049     -0.10773353765716
  H   -4.51191289726925      1.50921543504817      0.11321606590912
  H   -3.35822208204497      2.81023398921644      0.13338737582016
  H   3.95278754696696      2.71647161701622      0.06527446587753
  H   2.55664084444325      3.71579218526961     -0.02375401901219
  H   4.82984061743270      0.17076666256492     -0.00752930220830
  H   0.80975626066775     -3.08725672084101      0.02264566874946
  H   2.40124004116996     -3.86174743544890      0.03781236969336
