27
Coordinates from ORCA-job ./opt_b97-3c_parallel
  N   4.09555017424330     -2.37997175308013      0.18181153383800
  C   3.22890360869484     -1.60790923344369      0.10628883802154
  C   2.23273590298826     -0.60622679819528      0.01921488179870
  C   0.91624148806468     -1.02596208259248      0.02848287527033
  C   -0.29622221301802     -0.32166558254092      0.00997213293885
  C   -0.39137749414216      1.13350392053891     -0.01657174563269
  C   0.67880965864967      1.98659451936103     -0.28400976933079
  N   1.99672180317293      1.85074986553006     -0.30442170152224
  C   2.70517235188070      0.75184397782300     -0.07259573919224
  N   4.02727949938070      0.96359013145970      0.05122611473881
  C   -1.69135458884413      1.72452883814136      0.10604863750203
  N   -1.83402033646974      3.09874267908433      0.20527790245785
  N   -2.83100928443459      1.04023677238498      0.08902023211313
  C   -2.77430164180998     -0.28492516759944     -0.00017340072178
  C   -3.81552271501438     -1.20510344655678     -0.04393433423049
  C   -3.23085063172901     -2.48567229344036     -0.06648030114288
  C   -1.83188209590023     -2.40010529503244     -0.04137161334526
  C   -1.49229976216078     -1.04160756075043     -0.00549054149182
  H   0.80203943930757     -2.10024107008928      0.07547759433547
  H   0.38476470842387      2.99965233414643     -0.53878308200720
  H   4.68479193870034      0.21313114557743      0.16692405263401
  H   4.36364441884377      1.89810930078607     -0.09678878392056
  H   -1.21182952871850      3.56921617086452      0.84044463918373
  H   -2.79757192363337      3.35060761261074      0.36023565295105
  H   -4.86673184436552     -0.97108037725866     -0.04956124189104
  H   -3.78316350197782     -3.41345639759237     -0.10151983949177
  H   -1.16075152903116     -3.24384881513285     -0.06230478566373
