32
Coordinates from ORCA-job ./opt_b97-3c_parallel
  N   -5.24403755672950     -1.32646609717240      0.59738277541439
  C   -4.11131101320379     -1.11598933177505      0.44349218928594
  C   -2.74972998150651     -0.79815751353811      0.22310931073579
  C   -1.83677166856520     -1.81542882313554      0.43315152269051
  C   -0.45734210551888     -1.88594993616056      0.24169213896477
  C   0.03440430131264     -3.19809754526017      0.48387045692849
  N   0.34356518982285     -4.29426299735808      0.70967618617529
  C   0.47128916890521     -0.84571949040331     -0.03435369972127
  C   0.08555721093488      0.57348176649910      0.05218680532787
  C   -1.18507189357905      1.08063711563423     -0.35586152568027
  C   -1.18184761589140      2.36689149866841     -0.94708551934430
  N   -1.29197852436336      3.37483836689453     -1.51738230291754
  C   -2.47934286743503      0.50564135325178     -0.28391566651995
  N   -3.53099911459910      1.24089152142990     -0.68246723652400
  C   1.07794000496875      1.50799153373200      0.39124345826119
  C   0.75393582339299      2.80106521718412      0.84569511369845
  N   0.62398399778987      3.86323947817553      1.30231627304951
  C   2.47432679302227      1.19268856966085      0.34241418527492
  N   3.37356485097714      2.12196763316841      0.68525448255129
  C   2.83364235702767     -0.08010379554791     -0.10474821808564
  C   4.08006202870242     -0.65321465798090     -0.37340174050115
  C   3.87218133911620     -1.99797344075890     -0.73785534590304
  C   2.51872706658166     -2.28521953288387     -0.66791703612949
  C   1.82525251758754     -1.10040247525095     -0.27623064598851
  H   -2.28235891448152     -2.74137535394330      0.76928178066827
  H   -3.41673496991446      2.19373653531022     -0.98178953486920
  H   -4.46478428880623      0.87462113867769     -0.62406750036897
  H   4.35271302776228      1.90943686268906      0.69911989260237
  H   3.08568986585036      3.03697920476715      0.98832317747089
  H   5.04117762246948     -0.16289565505045     -0.33063349073481
  H   4.64299497663300     -2.69087076336534     -1.03471310697264
  H   2.07606151882292     -3.23136514745985     -0.91778200054445
