35
Coordinates from ORCA-job ./opt_b97-3c_parallel
  N   4.95030852097397      2.31258451924621      0.61694826802325
  C   3.97941609525593      1.69963242964176      0.42134352913952
  C   2.80527441391328      0.96214226744592      0.17916038498946
  C   2.89141572118725     -0.43143855120190      0.43048081176674
  N   3.97404094347110     -0.87804467043009      1.08958897037558
  C   2.01341131633595     -1.40734430714512     -0.11267478936889
  C   2.53051648981703     -2.71364223367969     -0.21154092301564
  N   2.96400388142944     -3.79087518292941     -0.29290248509590
  C   0.71801424871027     -1.19899915870979     -0.62208950577393
  N   0.18118099783605     -2.15217113552545     -1.38590287263966
  C   -0.13255916454069     -0.06282057469818     -0.31144594053591
  C   0.33627584284672      1.29159469004128     -0.32467681634320
  C   -0.59172848038979      2.33662824260450     -0.21507672503306
  C   -1.95917187184878      2.12671202341151     -0.06994275152574
  C   -2.82837625380092      3.23583360416076      0.06734997248210
  N   -3.50702704399614      4.17131610793756      0.16873926604580
  C   -2.43714246288116      0.81545748800337      0.00274559653956
  N   -3.70066920650485      0.41781070982684      0.21077842008943
  C   -3.64291740643043     -0.92617966780867      0.28847588714211
  N   -4.74999283237643     -1.65959856354150      0.50045545075284
  C   -2.32154132251919     -1.44007830357027      0.10415032218365
  C   -1.99291410283958     -2.77797821279617      0.29544790114525
  N   -1.76513814808113     -3.91264950597578      0.44756367968429
  C   -1.50062925213916     -0.29083984372157     -0.09702835298533
  C   1.72373553416710      1.68227987839576     -0.38489522134784
  N   2.00297604766146      2.89846159834180     -0.88045095645098
  H   4.72274141109811     -0.25318197104303      1.33376305814439
  H   4.16293065518518     -1.86369364231959      1.14943837813866
  H   -0.78263857563195     -2.08003345270134     -1.65985985438754
  H   0.58987540957158     -3.07151337196255     -1.44132520096994
  H   -0.24983828194139      3.35550901871542     -0.13299549676190
  H   -5.57001299351744     -1.17169251460502      0.81466341831586
  H   -4.65895586115121     -2.62468150369482      0.76316582152893
  H   1.29914498840862      3.43856239823996     -1.34496391205511
  H   2.93129742622123      3.28212368264731     -0.83780169189689
