34
Coordinates from ORCA-job ./opt_b97-3c_parallel
  N   5.17301069348230      2.23363416365327      1.61242625775075
  C   4.29288340085569      1.65453039367480      1.12490274564158
  C   3.20841560264698      0.96061798391473      0.52288520235477
  C   3.39104381213870     -0.38931904108614      0.26576043950710
  C   2.51686269322547     -1.28851131375149     -0.33417771810414
  C   3.07211131914134     -2.54361064944972     -0.68769303619264
  N   3.48115563307969     -3.58248750536812     -1.00991827576175
  C   1.12690015555216     -1.12571600715209     -0.60593944077828
  N   0.52339753676456     -2.11450577597357     -1.26745412386206
  C   0.30300488219010      0.00437788275827     -0.23541564655147
  C   0.83638615606464      1.36852449582375     -0.26393757495841
  C   2.09707214049905      1.73772543398668      0.15632276569151
  C   -0.08085153954209      2.45567348987331     -0.53946735292073
  N   0.42710305456639      3.70862186444140     -0.79356277370113
  C   -1.44149751962294      2.25713451119007     -0.43527412676429
  C   -1.93696405784164      1.00686423934870     -0.09357999061803
  C   -3.25632931959355      0.58815964088692      0.12499094218031
  C   -4.40784114704192      1.37541300422377      0.12068431190044
  N   -5.38655487669067      2.00695616797399      0.12375721761470
  C   -3.23254893868581     -0.81823774073798      0.37522187272680
  N   -4.30558147934297     -1.56523325899772      0.66026272719346
  C   -1.90000427721064     -1.28347977263062      0.27127659407177
  C   -1.54798923930823     -2.58329845672889      0.62595987744044
  N   -1.30658578360191     -3.68915707522995      0.90821987812930
  C   -1.06011678242912     -0.15271287210937     -0.02183996702317
  H   4.36707934773759     -0.78849982458182      0.50548516722204
  H   -0.46290780960710     -2.07198712195061     -1.45128432707894
  H   0.98096079826385     -2.99800690496502     -1.42396692493074
  H   2.23606722850231      2.80087976603886      0.29823391943824
  H   1.21519275015595      3.76701039414328     -1.41503204274504
  H   -0.25265908910736      4.42980033159473     -0.96280700037856
  H   -2.12737939470215      3.07762438473662     -0.60521996801348
  H   -4.19267493406663     -2.52374326397393      0.93988008485575
  H   -5.18773716437282     -1.12614106647460      0.85432948786332
