30
Coordinates from ORCA-job ./opt_b97-3c_parallel
  N   4.88348197766438     -2.37299517390330     -0.70836018662593
  C   4.06649829117453     -1.57559108684787     -0.49405044105649
  C   3.06807879066516     -0.60280764469962     -0.22932056664643
  C   3.47436558103015      0.73367514509604     -0.24766298532978
  N   2.82098215247526      1.80102386055877      0.14991575572613
  C   1.53233994026091      1.92090948042076      0.45364551931227
  N   1.26302794526060      2.97346018290800      1.24034901695385
  C   0.41871463269601      1.08385833996483      0.02855628949511
  C   -0.83228346783438      1.64918988374837     -0.20602857361235
  N   -1.00148507843207      3.03520741915305     -0.29548228787618
  C   -2.00767317352153      0.83818678550205     -0.29040665621211
  C   -3.24246215229258      1.45079810918880     -0.59296779942247
  N   -4.21335891095359      2.03578262358703     -0.84932989110721
  C   -1.93143974193409     -0.52096877915530     -0.04562871631281
  N   -2.93240904544851     -1.41792291437081     -0.03620125506343
  C   -2.32189251875055     -2.59849268053240      0.19557629542699
  N   -3.04722406913130     -3.72480931655464      0.33289873255908
  C   -0.90170947799738     -2.48870177246769      0.32666522939205
  C   -0.62586415131808     -1.14414134553476      0.18087060307100
  C   0.56881419195394     -0.36803042301307      0.09593741469903
  C   1.76344159146019     -1.06202596565613      0.00655272365121
  H   4.49222662129636      0.92714965219273     -0.56978535468842
  H   0.30997921617391      3.28156601425021      1.36243436547156
  H   2.01342458597034      3.61673635584633      1.42545163119029
  H   -0.32065235421892      3.49722670757205     -0.87787217965778
  H   -1.93435877348314      3.30795741568194     -0.56748196057226
  H   -2.60103563552206     -4.62112819832710      0.27984234342885
  H   -4.02012347134443     -3.67918939706400      0.08517159636443
  H   -0.22250893150351     -3.29980323585889      0.53271831252526
  H   1.66911014010337     -2.13826522869258      0.03396169851567
