26
Coordinates from ORCA-job ./opt_b97-3c_parallel
  N   2.93764915246243      3.25216630646032      0.02726060816457
  C   2.42912665543781      2.20780575569897      0.01298758556596
  C   1.85824302529542      0.90465351986618     -0.00347416804390
  C   2.83599089586071     -0.10177332454212     -0.01874315933623
  C   2.72928294759983     -1.46491089149003     -0.03319497633680
  C   1.55357922389027     -2.23548956514013     -0.03727248295961
  N   1.70964292619747     -3.59709276110000     -0.09821663797163
  C   0.25087544337866     -1.74402596580728     -0.03364440870557
  C   -0.30114574294440     -0.46085923846841     -0.01604015581985
  C   0.43965299910286      0.81612011566705     -0.00374801246437
  C   -0.28765103027868      2.01947524181352      0.01114168493570
  C   -1.66827111977095      2.07316153631344      0.01582313132869
  C   -2.39923170845723      0.89931259333748      0.00615522240856
  C   -3.76894712752987      0.59252238094645      0.00725572966421
  N   -3.97118231652410     -0.74472283392102     -0.00628954142869
  C   -2.75342393506867     -1.32179831273897     -0.01659402166940
  C   -1.71247680846968     -0.36603698276137     -0.00981410166255
  H   3.85125990788649      0.27271984351583     -0.01456122699101
  H   3.66359585092181     -2.01277476664171     -0.04915578123906
  H   0.92396680095792     -4.17789393609914      0.13347671313501
  H   2.60023802424706     -3.98471928037313      0.15555919253903
  H   -0.49867350834730     -2.52571758294978     -0.04577483960271
  H   0.26220657421531      2.94779114694363      0.01948373881701
  H   -2.16199021123487      3.03693310705496      0.02714998346271
  H   -4.60050907299570      1.28114603543564      0.01727821883727
  H   -2.67695764103261     -2.39948815642027     -0.02903159592732
