30
Coordinates from ORCA-job ./opt_b97-3c_parallel
  N   -5.44469678423300      2.27235096101359      0.74464186269473
  C   -4.46474776495796      1.69362749844067      0.51332022478006
  C   -3.26438568465020      0.99005782603518      0.23859502987199
  C   -3.32246658595999     -0.40041896385027      0.26815191783030
  C   -2.32920490841771     -1.33586074582476      0.01543854285704
  C   -2.82401405231772     -2.66988161351970      0.02844346199969
  N   -3.25538687395644     -3.74816927518504      0.03633908372404
  C   -0.90754710525885     -1.18081981650617     -0.15310889073846
  C   -0.16199406759635     -2.35905678873154     -0.30380564353777
  C   1.22100063501480     -2.38782275719356     -0.28469917901240
  C   1.91227433642965     -1.21742856771465     -0.08164436152888
  C   3.29215630235849     -0.94292622251216      0.07374105326939
  N   4.31902242992143     -1.79618762858360      0.04177516907626
  C   3.42188552981555      0.47195550024729      0.30359952922579
  C   4.65691211729926      1.08982123576786      0.54300528552234
  N   5.72180235437594      1.51545910672741      0.73342046476804
  C   2.16347557141409      1.05030913889891      0.26466968002826
  C   1.19186849616521      0.03396885487461      0.01931046175349
  C   -0.19665526279211      0.09342776726158     -0.12298424106738
  C   -0.84603523189913      1.37073704398014     -0.35599280467168
  C   -0.05813868829530      2.42646938018355     -0.89006015534143
  N   0.51409839152253      3.32328989484769     -1.35714360399223
  C   -2.15448715744313      1.75473154385252     -0.14118930122985
  H   -4.29722220467792     -0.81672987450205      0.48213702856578
  H   -0.69036426745293     -3.29307844499656     -0.40756585013762
  H   1.72554342162382     -3.33939738416141     -0.39930674800548
  H   5.26016155553670     -1.46853003467628      0.17478120793771
  H   4.18822595346766     -2.77725087884110     -0.11839205187837
  H   1.98327496917001      2.09516003023031      0.43534427114209
  H   -2.35545808620642      2.80512806053748     -0.30239567000544
