31
Coordinates from ORCA-job ./opt_b97-3c_parallel
  N   5.51168191520265      0.04741320862121     -0.65152447295321
  C   4.42694823955431     -0.27673889262522     -0.38293186353880
  C   3.09133969203840     -0.62365872490816     -0.07324644844418
  C   2.92055268623911     -1.87435124777463      0.53117100223722
  N   1.83837262331605     -2.59487575332030      0.73290568491427
  C   0.60397662049510     -2.21318155786405      0.41633822923537
  C   0.02074025896285     -0.98303659476117      0.11463929428737
  C   0.71908765347558      0.30732811496265      0.06020502082799
  C   2.10042558502706      0.36729651662950     -0.34939372962175
  N   2.51525662457945      1.43785540753211     -1.04289858741681
  C   -0.03022865964939      1.48524554252695      0.18983569437454
  N   0.59653977422430      2.74159421883599      0.27786865162693
  C   -1.45011354007090      1.45990432935832      0.19552812289079
  C   -2.15838830035613      2.66720983739673      0.38056733334589
  N   -2.71922146939873      3.67401370728443      0.53501213919347
  C   -2.14990409496747      0.27694863695198     -0.00521650397511
  C   -3.50542575497838     -0.00483898429035     -0.10021453608577
  C   -3.62129527363824     -1.40328943712115     -0.21246641067179
  N   -4.77422014462433     -2.09228951771135     -0.39640954324310
  C   -2.32617171195320     -2.00215683622866     -0.17064037095945
  C   -1.39276537434957     -0.98821208224162     -0.04920067886553
  H   3.84241235838167     -2.36479706328095      0.82997702282962
  H   -0.10058414058335     -3.03383420633675      0.47992705716913
  H   3.49099740994440      1.54850493992892     -1.26339288085365
  H   1.91677776216484      2.25242022852434     -1.08787596804322
  H   -0.05578152979080      3.49985960464163      0.41396488432017
  H   1.31168157263659      2.78130529258223      0.98926692817594
  H   -4.31358235883411      0.70792597972354     -0.08884333033007
  H   -4.78063726444002     -3.08079963047784     -0.22136260663713
  H   -5.64679355256920     -1.62382040103339     -0.23181857140592
  H   -2.14456866963830     -3.06026911172471     -0.26790431858337
