26
Coordinates from ORCA-job ./opt_b97-3c_parallel
  N   -3.29616774925259     -2.87255256236015      0.00872491978753
  C   -2.75637674690504     -1.84403786477496      0.00407185352947
  C   -2.25164693490881     -0.51240875426059      0.00192618862705
  C   -3.25924898507970      0.47137892463770      0.01646966503417
  C   -3.15254587318950      1.83540196977086      0.01585341935718
  C   -1.96996534257419      2.59252070608017      0.00219016025290
  C   -0.67365798858913      2.16848202295746     -0.00873990388467
  C   -0.09307759081707      0.86838069668207     -0.00987710927333
  C   -0.83604699981904     -0.39494082970252     -0.01385906098545
  N   -0.21418891204528     -1.59260344637559     -0.03100396374323
  C   1.11184944207594     -1.66334410806742     -0.03674855418737
  C   1.92469422435471     -0.55400088110136     -0.02003085105439
  C   3.32547483689216     -0.36364975944738     -0.01275512456992
  N   4.28634499762023     -1.33131899863878     -0.07467740993872
  C   3.56061803431766      1.03579804423752     -0.00650429249475
  C   2.34880257811259      1.70690147047971     -0.00360385021329
  C   1.29717226914707      0.75364046216407     -0.00951822188343
  H   -4.26535421657356      0.07319676916033      0.02811610594382
  H   -4.08105749942749      2.39092509646165      0.02603599793393
  H   -2.10530758060118      3.66767742912145      0.00099564357748
  H   0.05610755917503      2.96752665601598     -0.01758424468591
  H   1.51805306957302     -2.67140001281619     -0.05904154619224
  H   5.21397458321582     -1.07309164285862      0.21314904743259
  H   4.02708070701023     -2.26182922535975      0.20232420349938
  H   4.53622111358140      1.49843987292500     -0.00645862469678
  H   2.24740094880674      2.78018230256936      0.00969236912796
