35
Coordinates from ORCA-job ./opt_b97-3c_parallel
  N   2.71459582953464      3.80718635355026     -0.37251278569423
  C   2.38243860012143      2.70014227152460     -0.22626115399110
  C   1.99970478819232      1.35835889931067     -0.04587135266882
  C   2.99812208079911      0.48462162524997      0.48491875414524
  N   4.05221223090418      1.07052272057505      1.11439071873505
  C   3.03351461239633     -0.88455209339709      0.29412236700221
  C   2.06368695498024     -1.75396942970896     -0.22458125981509
  N   2.53783560243888     -2.91524517707108     -0.72822081800960
  C   0.63692970140937     -1.55458786969856     -0.17417817759459
  C   -0.23706143028004     -2.67717953181911     -0.06016156672293
  N   0.26327707555304     -4.00785358117010      0.03391923152416
  N   -1.55352940466868     -2.60674299162556     -0.01646570001408
  C   -2.13012329962334     -1.40222780061248      0.00784270797984
  C   -3.48794043292813     -1.10382509452615      0.10466063265185
  C   -3.60614149505705      0.28849972962655      0.20359343070080
  N   -4.76134015940518      0.99849855982535      0.32628730932160
  C   -2.31178163032130      0.89292233476493      0.12351135634923
  C   -2.11518087216152      2.24368059467437      0.38613617555238
  N   -2.00071325295830      3.38850743969029      0.59212730020699
  C   -1.35829645612156     -0.16728286398732     -0.01715868058281
  C   0.02227570397770     -0.24920154720121     -0.18698293684120
  C   0.73934640076684      0.98004366660078     -0.52620938572073
  N   0.08705775542169      1.83198106934709     -1.32657049058031
  H   4.18004358758808      2.06533551006707      1.04149134561858
  H   4.88902621740614      0.53604809847649      1.25798370258865
  H   3.98634691512120     -1.35272688714241      0.51582813946259
  H   3.51800157084229     -3.11883550051263     -0.65914934050956
  H   1.89106296775572     -3.68221955044556     -0.88301568406487
  H   0.80798358905382     -4.14147438238702      0.87825291621886
  H   -0.54540154957740     -4.61352456384657      0.08735504899078
  H   -4.29119756755798     -1.82144698526459      0.13458508488736
  H   -5.55934397647880      0.51428144316314      0.69720708819153
  H   -4.67701285931538      1.95223452384310      0.63776030908943
  H   -0.87654010458736      1.64780424601448     -1.54649751510342
  H   0.38127583057870      2.79216704141274     -1.40324990640271
