28
Coordinates from ORCA-job ./opt_b97-3c_parallel
  N   -5.56503777821358      1.01292959403786      0.01307290962995
  C   -4.44456108660346      0.70111328541676      0.00971458170671
  C   -3.10821687997028      0.23532413141993      0.00530429848401
  C   -2.10951162175429      1.20600570943770      0.00055524969542
  C   -0.72237716855170      1.14630446141940     -0.00496561983783
  C   -0.06016571210272      2.40109758724355     -0.00892933204209
  N   1.24374705015635      2.59653184196520     -0.01401844350925
  C   2.00939819186376      1.50026299437933     -0.01545614060853
  N   3.34771770533601      1.51735600989527     -0.02218096888330
  C   3.72014086613191      0.21772017759123     -0.02473214346343
  N   5.01321066145179     -0.12664161345159     -0.01144196366594
  C   2.61265664110804     -0.68913627147025     -0.01950981027224
  C   2.72050482833092     -2.07613710527526     -0.03043439357051
  N   2.84058889120109     -3.23682295617865     -0.04196142502888
  C   1.47069766997558      0.13676528726511     -0.01338206995476
  C   0.08762054408475     -0.06181422692771     -0.00708658931827
  C   -0.43067526781120     -1.37016848883233     -0.00287189584393
  C   -1.70820613636614     -1.85914314310858      0.00284593726062
  C   -2.94557144356164     -1.18190012253639      0.00662428612746
  N   -4.05427183972965     -1.94046541655338      0.01198140673099
  H   -2.50248306273744      2.21615118048764      0.00113294451607
  H   -0.67375901295931      3.29648914329233     -0.00776631575294
  H   5.70390124257978      0.59459720987682     -0.11081014852646
  H   5.29338166256007     -1.08416708581955     -0.11701945750193
  H   0.32376044175419     -2.14555965488646     -0.00448734327856
  H   -1.78529808359999     -2.93987255295760      0.00515593760101
  H   -4.97252916262241     -1.52986269477652      0.01513367506228
  H   -3.99122081404547     -2.94134799775404      0.01316958634403
