30
Coordinates from ORCA-job ./opt_b97-3c_parallel
  N   5.66950161972410      1.54259525624352      0.59487061309930
  C   4.57552126138111      1.17034512653485      0.45152478018503
  C   3.29217376324831      0.64620730488711      0.26968176263874
  C   2.06267594742421      1.32653719958022      0.31703736623496
  C   1.02208969222013      0.40935261139933      0.11494433592250
  C   1.62154115199658     -0.89055115617481     -0.06029799484011
  C   0.83327727280422     -1.99600357160508     -0.27338764037558
  C   -0.55666421286793     -1.87307905837904     -0.26394328820577
  C   -1.35126737799461     -3.03193317015621     -0.41919837422587
  N   -1.95514340481481     -4.01469474393938     -0.55671779048191
  C   -1.20884417050106     -0.62154903306300     -0.03863672412040
  N   -2.51585921792044     -0.69086723367472      0.12287286486023
  C   -3.41041303113076      0.29223566138651      0.27954956613570
  N   -4.59566475932342     -0.14899317999209      0.75469331661492
  N   -3.38282938278316      1.59307834797659     -0.01318929946773
  C   -2.25975898489083      2.27815091805824     -0.20671425735365
  N   -2.47165448956336      3.59674428797903     -0.48159173147342
  C   -0.91603264372805      1.86772446838301     -0.10665124275947
  C   -0.37804203099167      0.59658198590449      0.02630237625308
  C   3.03223567557563     -0.73650015874305      0.03177910958977
  N   3.97961035889406     -1.68306402349987     -0.11704352166502
  H   1.97143421804386      2.38108375068646      0.52042406991806
  H   1.25769402778348     -2.98038534421766     -0.42525662291256
  H   -4.75219679409892     -1.13967422372594      0.79128670132839
  H   -5.37738999233494      0.47932017437261      0.76277781078769
  H   -3.41797816653872      3.86021044519094     -0.69147065312502
  H   -1.74322814173623      4.14456056608576     -0.90003126676900
  H   -0.19463035705203      2.66893064178628     -0.20188686999979
  H   4.92996093997217     -1.45790243752067      0.12234285098475
  H   3.73149521600341     -2.65361586656376     -0.06358647007783
