22
Coordinates from ORCA-job ./opt_b97-3c_parallel
  N   -5.08201959553997     -0.84531991106734      0.09605214928134
  C   -3.99151121863167     -0.45083736304576      0.05526283237694
  C   -2.65490927992031      0.03279046256701      0.00682801534717
  C   -2.48858030351413      1.41031413337344      0.13551740675792
  N   -1.40546346213792      2.15402229149283     -0.07844591346459
  C   -0.16619541465741      1.76416445315829     -0.21478114514412
  C   0.44689273419311      0.49549614924087     -0.01560989338804
  C   -0.26289089654723     -0.77915741321444     -0.05262277537988
  C   0.51223112055147     -1.98202211186446     -0.05151226069645
  N   1.82129074747506     -2.05685825372003      0.01734479200152
  C   2.48844217133021     -0.88799466943775      0.06266036692887
  C   3.84508782217015     -0.61136130601833      0.08264239246894
  C   3.92920678203520      0.80272357076953      0.09431778931721
  N   2.73815647865492      1.42554928711462      0.08621687944781
  C   1.82545006317916      0.41829412021481      0.05572976321497
  C   -1.63429850637123     -0.93305382913294     -0.09536135114383
  H   -3.37462306446129      1.98206239966310      0.38837895716564
  H   0.52785510681469      2.54979925787489     -0.49607669979072
  H   -0.02480904791091     -2.92384953628410     -0.08934446211630
  H   4.65796880037491     -1.31756216401384      0.08410284433528
  H   4.83965013484176      1.38507511986531      0.11153734711892
  H   -1.98453013322875     -1.95615572473590     -0.15841426923810
