31
Coordinates from ORCA-job ./opt_b97-3c_parallel
  N   5.73570234877625     -0.90797400488941     -0.21628024234528
  C   4.58712641969589     -0.70905638420213     -0.17809957303643
  C   3.21601132088013     -0.40407484243957     -0.12019896620582
  C   2.30174260624866     -1.44152828161934     -0.31966722501423
  C   0.93190976566494     -1.44932165764599     -0.26118695426109
  C   0.01867623672880     -0.38959600814687     -0.04326006383534
  C   0.41821451351571      1.02560309084869     -0.02065128348256
  C   -0.58041026202021      2.00453403849229     -0.09723481579271
  C   -1.94860903862913      1.73165395421269     -0.09759567575189
  N   -2.87828478841617      2.75414904795824     -0.15768792882040
  C   -2.34098491122019      0.39780319012091     -0.04006572886581
  C   -3.58658367872475     -0.26486898936636     -0.02765304384658
  N   -4.82684809587486      0.29237491009787     -0.15001794733861
  N   -3.45239039449570     -1.60021331032644      0.15596565842013
  C   -2.13072806495575     -1.83736116685580      0.21427029360821
  N   -1.67973836370379     -3.09876989774276      0.40554489650502
  C   -1.35177943751343     -0.63357433607986      0.05377625365668
  N   1.66151571594257      1.52362955483506      0.12598675316423
  C   2.84793611194230      0.95450473754164      0.16304341053823
  N   3.85216783527178      1.80182916452628      0.50708442769402
  H   2.75570757784190     -2.39722356431222     -0.55206578195778
  H   0.48582863462800     -2.40006318452211     -0.51379004939575
  H   -0.24017700855929      3.03093625782042     -0.08632288025572
  H   -3.70328885626259      2.60502412845770      0.40215973153381
  H   -2.49600050398758      3.67308143780984     -0.00389632267785
  H   -5.55768648103295     -0.38537320503256     -0.30010392982341
  H   -4.89097691451804      1.08806604081939     -0.76464662861228
  H   -2.37496513689147     -3.75360129617495      0.72494595803554
  H   -0.76414775835174     -3.21444436479789      0.80535514634247
  H   3.62820872457112      2.77973960893438      0.52593228533332
  H   4.81403436394978      1.53023700027552      0.40782960769012
