28
Coordinates from ORCA-job ./opt_b97-3c_parallel
  N   1.48340372587613      3.02208188911630     -1.39898712307748
  C   1.67940602700188      1.97876568599727     -0.91549615217551
  C   1.89644356097336      0.73116999265323     -0.30156510078703
  C   3.23985691882717      0.37454623575831     -0.17709779174327
  C   3.79008454025033     -0.78774321733684      0.32233808271552
  C   3.06796646484435     -1.89484581431300      0.76679123674539
  N   1.81324008837177     -2.22349711504064      0.59091016141755
  C   0.79002813515940     -1.51946370305421      0.07705850175699
  N   -0.25485851518522     -2.25904662532243     -0.29653239628228
  C   -1.46932754969443     -1.71532415148088     -0.39798805547028
  N   -2.48252960811096     -2.54105376935911     -0.82166464704199
  C   -1.69010560263670     -0.40211055162413     -0.00286309182180
  C   -2.82786591664668      0.38301471059997      0.27222182914412
  N   -4.12490419588840     -0.01113818640136      0.24105775470680
  N   -2.50290575839560      1.66024594281729      0.56941480430059
  C   -1.16228386506870      1.75254822504025      0.48545518117267
  N   -0.55911862225094      2.90208046671422      0.82503701590427
  C   -0.55741798429826      0.46778360394584      0.15327148236530
  C   0.72455497977728     -0.04510884403034      0.02931944850935
  H   3.94052028163548      1.13691952931758     -0.49541489828192
  H   4.86504748998388     -0.82463390314913      0.43761855181388
  H   3.63187609933666     -2.63433187956334      1.33258632585141
  H   -3.18814115721500     -2.11353458135610     -1.39898708831731
  H   -2.14910098070595     -3.42389214541291     -1.17624020456939
  H   -4.30973639335705     -0.98464727361668      0.41736756948392
  H   -4.77428840579472      0.62790762489678      0.66961931917213
  H   0.31476865967788      3.14783598129599      0.38300850332138
  H   -1.19135674996705      3.67240886740822      0.97267459288716
