29
Coordinates from ORCA-job ./opt_b97-3c_parallel
  N   3.72944588190195     -2.53743896994579      0.42227360223730
  C   2.95273128794823     -1.68132557558777      0.27392871746691
  C   2.00376763743512     -0.65993128939111      0.09616723876385
  C   2.47887219815684      0.57669924129436     -0.44941318988507
  N   3.62238418735403      0.54928049015533     -1.16950539477121
  N   1.97067217341101      1.76954091155993     -0.23852529945690
  C   0.76766244026136      2.06425251370268      0.23679244725858
  N   0.68567847812130      3.29575514869013      0.78030883704498
  C   -0.43812895130851      1.30131637025663      0.09770536229897
  C   -1.64831431046280      2.02458996190396     -0.04831303808164
  N   -2.84842712290044      1.49266639855311     -0.17774188599697
  C   -2.92469865455795      0.15918925985667     -0.19043914967656
  C   -4.05448294078397     -0.64382465542460     -0.33439547997208
  C   -3.61844749133814     -1.97450564366671     -0.34554488685078
  C   -2.22761181994893     -2.04505449537964     -0.17601387474551
  C   -1.73948494115573     -0.72442428641280     -0.07287754204114
  C   -0.48566809052486     -0.12603397022795      0.10511501952653
  C   0.67032305301195     -0.94729462978893      0.43611655021007
  N   0.41195125160682     -2.11175095069950      1.03963934621435
  H   4.08763146030805      1.42329192048265     -1.33513986441040
  H   4.16444289810049     -0.29281712576148     -1.24073993055670
  H   -0.12423014569535      3.58959111665413      1.29031492737325
  H   1.50927250049308      3.86914757089870      0.79537088966862
  H   -1.60422324394666      3.10385396443972     -0.13571926854476
  H   -5.06482520880082     -0.28748619639772     -0.44826997967364
  H   -4.25751611694463     -2.83537371337834     -0.47955922679132
  H   -1.65747069386298     -2.95654354872025     -0.25546707932360
  H   -0.53683618820670     -2.33902724412790      1.28782432096642
  H   1.14451764552972     -2.76028283213720      1.26974014934847
