31
Coordinates from ORCA-job ./opt_b97-3c_parallel
  N   -2.85480157574498     -4.01883210987615      0.21969293333544
  C   -2.44223783249888     -2.93459455174284      0.14766379347824
  C   -2.01207231099811     -1.58651700903582      0.06857630789931
  C   -0.65907658141354     -1.38132316952565     -0.07159509181063
  C   0.11530973763101     -0.21857413200292     -0.07058177679951
  C   -0.33205582882627      1.15397976767232      0.01481925052724
  C   0.64682685085423      2.14690118001253      0.23000075002014
  N   1.96229902444119      1.97004766715533      0.28942591513396
  C   2.39888442028992      0.72742623018402      0.09810777187082
  C   3.69452449071447      0.19590544043952      0.06735179057174
  C   4.93464858176931      0.82012205292943      0.19112009011799
  N   6.00601056051579      1.26617053941068      0.28550005500708
  C   3.49686057113444     -1.21379718625589     -0.10552777105391
  N   4.46637598516417     -2.12717256619085     -0.20116894057708
  N   2.19079232204297     -1.56741488639851     -0.17949750404240
  C   1.50947305754419     -0.41586204701357     -0.07239966703209
  C   -1.68335843566643      1.57487161280344     -0.17584650508379
  N   -1.88504698859744      2.87488210890468     -0.46931637192265
  C   -2.87694768283006      0.79477902604698     -0.04775572742251
  C   -4.08364638115444      1.51865272978833     -0.14126359786446
  N   -5.08444944040683      2.10959935222612     -0.21591578291837
  C   -3.04888774865615     -0.59569197460299      0.14046257275715
  N   -4.29448621924907     -1.05465700492503      0.33497323391108
  H   -0.06412778380371     -2.28372185454460     -0.13539639364928
  H   0.33491814675574      3.16124610268269      0.44453935644088
  H   5.43037160914972     -1.86872840801441     -0.09639332094470
  H   4.22345666196992     -3.09876729969482     -0.26315462385004
  H   -1.12549317536997      3.45382932388357     -0.76839777499656
  H   -2.81120526155533      3.25202882261754     -0.56803986321034
  H   -5.08564665015563     -0.43480273211602      0.35112390056931
  H   -4.47403972195015     -2.04281285321706      0.38809054373791
