27
Coordinates from ORCA-job ./opt_b97-3c_parallel
  N   5.19200011125067     -0.94659841801209     -0.16535920782828
  C   4.17334682800022     -0.39395490891247     -0.07519761453433
  C   2.90818136276273      0.23681458068501      0.01382438086624
  C   2.92134541509343      1.55411825283260      0.45692053265120
  N   1.98858038800744      2.48903843021152      0.37542754032299
  C   0.73286699401402      2.29286605754661      0.04359159126545
  C   -0.05500097926511      1.12418675999875     -0.01537218989518
  C   0.40079519806626     -0.25712284297453     -0.00182531257598
  C   1.77330486085105     -0.57644957334733     -0.32318514041234
  N   2.04424299393164     -1.73056232797413     -0.93281165050652
  C   -0.55608078099081     -1.29555813625282      0.11966006032157
  N   -0.15078555391275     -2.63721379444041      0.23661230289536
  C   -1.94502572317434     -1.02753882411623      0.09585568628035
  C   -2.85252782743681     -2.09854896743341      0.26575271726038
  N   -3.53057650816161     -3.02981760132977      0.41155770771600
  C   -2.39711618831521      0.27678580898065     -0.07349160607313
  N   -3.64107380528047      0.77843081710810     -0.12678536764587
  C   -3.40638001941550      2.10966289102939     -0.18829724738414
  N   -2.11940973525034      2.51956302138551     -0.16237265615082
  C   -1.43906998202958      1.35566618185193     -0.10602513901122
  H   3.86981774107813      1.90503573006677      0.85025247873799
  H   0.17147751431166      3.20178913829709     -0.14203704337009
  H   1.31257742786831     -2.42887612597496     -1.01169666662214
  H   2.99747354759290     -2.00552441597545     -1.10535252304351
  H   0.49352403084130     -2.79506077450409      0.99847928233211
  H   -0.93086544235349     -3.27289345243586      0.32571659153160
  H   -4.21774022598315      2.81908275499003     -0.25475989332814
