29
Coordinates from ORCA-job ./opt_b97-3c_parallel
  N   -5.79906663230846      1.55960153521362     -0.53318258478938
  C   -4.85558605078872      0.89511202472997     -0.38277123471005
  C   -3.67086913995559      0.17125892921701     -0.20905589810640
  C   -3.50950048286800     -1.19644448979848      0.04311548542446
  C   -2.13242399907460     -1.47851955983062      0.14623615411061
  C   -1.41024100285259     -2.60774003140079      0.49315694667206
  N   -0.08316649638123     -2.63164817093172      0.50346725198686
  C   0.63241002910021     -1.52578932239045      0.21415688592331
  N   1.91212543155403     -1.75931124124433     -0.03781317744892
  C   2.91088113770522     -0.90910716879814     -0.22741502270635
  N   4.03310924734982     -1.50212095909173     -0.68513843487952
  C   2.96894599238625      0.48943155011119      0.04408189104140
  C   4.23322443001637      1.09604194846402      0.06709463224408
  N   5.28345801945429      1.60291574139185      0.08798290751724
  C   1.83508435297267      1.32158190978378      0.23391050573526
  N   2.06318415739434      2.63657871499089      0.47385028208577
  N   0.54411367265296      1.01724909702147      0.13320227406351
  C   -0.02686218459261     -0.19529292960820      0.09378373011727
  C   -1.40813055991073     -0.26215219757718     -0.04539109184873
  C   -2.36905769700386      0.77353907897238     -0.24433703825181
  N   -2.08388029679479      2.05776723895461     -0.42449280764342
  H   -4.31671353648140     -1.90286363841304      0.14980137528107
  H   -1.90717108216116     -3.53340631964913      0.76450739184435
  H   4.89419911732227     -0.99932729920131     -0.80195929648057
  H   4.04319393633301     -2.50567226015997     -0.70999974272599
  H   1.28149277257919      3.18862243189828      0.77416263252311
  H   2.98461724722023      2.96660297242537      0.69965827080705
  H   -2.80694134516730      2.74628614972225     -0.54331530264770
  H   -1.11014356749816      2.32181217299883     -0.36288457853945
