26
Coordinates from ORCA-job ./opt_b97-3c_parallel
  N   0.00854808752058      3.30011194376037     -0.47153151341491
  C   -0.36811925738873      1.97816724187060     -0.25250634692337
  N   -1.65080460483119      1.74385610289174     -0.13393441152883
  C   -2.04346438073842      0.47952870679268      0.12788860412402
  C   -3.32141302228249     -0.00490793969384      0.30517171835613
  C   -3.22934987321168     -1.42297567865220      0.42284587302671
  C   -1.92088230111639     -1.83973459421578      0.28107582762778
  C   -1.11402847617798     -0.66613766382517      0.11588979686123
  C   0.23141246133177     -0.41574016091500     -0.04032806647518
  C   1.17916554082998     -1.49892352833652     -0.32425421575186
  N   0.66757852049366     -2.56958290788675     -0.95501414833077
  N   2.45919228278907     -1.61271776556209     -0.01995661534067
  C   3.27045729924491     -0.67011432284078      0.44684336252348
  C   3.10320246434376      0.69620068245931      0.50325447582009
  C   1.95007454261403      1.41306060002277      0.19689806303582
  C   0.66444397927394      0.96992999931258     -0.07454283084346
  H   0.68409524524591      3.43481140672045     -1.20714244714890
  H   -0.80853400472229      3.87334661664069     -0.61659524200982
  H   -4.22267283753367      0.58549048586494      0.32930305267005
  H   -4.06791925824388     -2.07975049985276      0.60318998784334
  H   -1.57124244855616     -2.85049837508680      0.41265561282543
  H   -0.27629881346656     -2.56805149022889     -1.29856081268480
  H   1.29452699459442     -3.31422047702504     -1.20258706199620
  H   4.23044317924264     -1.05732010531878      0.77621681867447
  H   3.96203925635918      1.26912807457341      0.82840767141065
  H   2.05007113448581      2.48743246093101      0.27747875104972
