30
Coordinates from ORCA-job ./opt_b97-3c_parallel
  N   5.38937764144260     -1.27683496702137     -0.31174809831302
  C   4.34665802398307     -0.77164480428181     -0.19050090650130
  C   3.06309192985963     -0.23365097945898     -0.06107192758776
  C   2.70562576236311      1.13338902401748      0.05810869747577
  C   1.32290113054001      1.21980700282436      0.08362635772447
  C   0.45499134335948      2.32663836934340      0.13743954356794
  N   0.94141673199112      3.59725635194717      0.25847741381605
  C   -0.91496459555447      2.09482371074288      0.09987475660238
  C   -1.48825382534343      0.81650810980433      0.04728052663187
  C   -2.87711104488558      0.74757825264755     -0.09589375913928
  C   -3.77137335646244     -0.32872501139068     -0.15275926957810
  N   -5.06932554577737     -0.04525639600493     -0.49536824899449
  N   -3.57530186892334     -1.63092942692889      0.09378993216752
  C   -2.39071448327737     -2.15908302187982      0.34855514233979
  C   -1.09864711182950     -1.65904308112098      0.32762079639111
  C   -0.60599594841923     -0.36171214026479      0.10379500544679
  C   0.76827280386664     -0.11615670452029      0.01803386971996
  C   1.88203850128562     -1.00941597853235     -0.09930981520255
  N   1.86330230586486     -2.37042732957867     -0.22161984946327
  H   3.42078364047181      1.93869643880930      0.10993350894776
  H   0.32164338211186      4.35444047678304      0.03102274850917
  H   1.89621683046324      3.75687632498571     -0.00760192031360
  H   -1.58195061199160      2.94811932870050      0.09802681045434
  H   -3.34946780216080      1.71677648900069     -0.21904266578774
  H   -5.73136233991883     -0.76931722573468     -0.27639559175707
  H   -5.40370958088002      0.89709072084741     -0.40952186936390
  H   -2.45238536197358     -3.21425718600980      0.60432754698781
  H   -0.35802182981993     -2.39663996366604      0.59915443310774
  H   1.07550054979351     -2.76678335521670     -0.70751037973107
  H   2.74087352062200     -2.78245182504362     -0.50050141945761
