29
Coordinates from ORCA-job ./opt_b97-3c_parallel
  N   3.86551143559917      0.52113476354927      1.40488399646063
  C   3.02769542825530     -0.02936854216193      0.81703136268225
  C   2.01915067086638     -0.81727164066518      0.19913629671602
  C   2.41396309361322     -2.15211115366689      0.02408697905860
  C   1.69642029181596     -3.23809184751473     -0.41623772570407
  C   0.32716523285466     -3.27565441843041     -0.67187712544218
  C   -0.60956179154005     -2.28978294063057     -0.48966811849702
  C   -0.49228123477913     -0.92430394638578     -0.12515225245813
  C   0.76841460916866     -0.18321829627750     -0.08432755434364
  C   0.72472819518771      1.22045107067654     -0.22862847854857
  C   1.86767369862179      1.97451736610037     -0.56232805439388
  N   2.69253293121198      2.71698024832291     -0.91202288813990
  C   -0.49228031394986      1.97053973894409     -0.14748969052586
  N   -0.46391953953230      3.30561764085194     -0.27982858227053
  C   -1.66978985353685      1.26235188395675      0.08835712153024
  C   -3.00559974525842      1.62893867441091      0.26524480467453
  N   -3.80848426142880      0.55262510099478      0.41381498099757
  C   -3.02166603300757     -0.53560148731206      0.30965948233199
  N   -3.56854078039909     -1.77951375405781      0.41547001109892
  C   -1.65063401453346     -0.17732921698482      0.09020057324651
  H   3.45181684756004     -2.33880995793207      0.26775116027560
  H   2.24597803872707     -4.16113417857585     -0.54375602155734
  H   -0.06200789945497     -4.22163664995753     -1.02977775248030
  H   -1.61724053957673     -2.57888264775635     -0.75541403409075
  H   0.39391874932074      3.78194474984678     -0.50063980327268
  H   -1.31450586539968      3.83324545411150     -0.31687677757668
  H   -3.42718339920285      2.62224552332392      0.31710309066407
  H   -2.98808445685294     -2.50592711616290      0.80092232495770
  H   -4.50808430035032     -1.77133464681697      0.78092836730684
