32
Coordinates from ORCA-job ./opt_b97-3c_parallel
  N   -3.20369555494352      3.62818898138259      0.79075066288114
  C   -2.79347639516429      2.57239836774891      0.52202997422057
  C   -2.26343305720303      1.30519930316893      0.18859723266737
  C   -3.19489415000850      0.29068253184430      0.00657770135491
  C   -3.00431735876467     -1.00779065104174     -0.37848467826905
  C   -1.80989895423849     -1.73314596272369     -0.46462459941381
  N   -1.92906382769401     -2.96010847774928     -1.04142273937651
  C   -0.50332918486964     -1.31142284897747     -0.01583527378735
  C   0.43775973671715     -2.31905498787338      0.34721894531939
  N   0.00156852980404     -3.64391086619330      0.63453117147916
  C   1.79574792135948     -2.07591534892554      0.41578014675176
  C   2.29760628318935     -0.82283406186724      0.11128466220240
  C   3.57709751803957     -0.26735049884331      0.08260155737034
  C   3.38059242732179      1.09567756787179     -0.18434870477758
  N   4.33355211816423      2.07497808403035     -0.26845402055259
  N   2.07084178537841      1.41864018887549     -0.31632153752983
  C   1.36845670933794      0.25937666634008     -0.14728338051298
  C   -0.02723387196168      0.06871163580209     -0.12364219219818
  C   -0.86025813363849      1.25782025523658     -0.09527516725959
  N   -0.25929236330031      2.43516735444247     -0.26286831174090
  H   -4.22646480930914      0.59507647209563      0.13135416674327
  H   -3.90347388032966     -1.55750431021407     -0.63056587119914
  H   -1.20457571583158     -3.64199305548761     -0.84860585030899
  H   -2.85661581694651     -3.32675620787974     -1.16406115922599
  H   0.77117785165231     -4.21099860896591      0.95550922734274
  H   -0.72259201027135     -3.66068366079738      1.34007077516235
  H   2.46273067403937     -2.87195674312273      0.72835966628603
  H   4.51586759258480     -0.76942611108885      0.24972527028037
  H   5.25265477697348      1.77428674680728     -0.54205319659274
  H   4.02996815208693      2.91213522014048     -0.73706351970936
  H   -0.78709246759008      3.28339047081060     -0.14139584929125
  H   0.77448988251596      2.44925206435418     -0.33977829761583
