28
Coordinates from ORCA-job ./opt_b97-3c_parallel
  N   -3.75080360224245     -3.02469622889093      0.35100984573190
  C   -3.08054991153844     -2.07930531442717      0.24400005590268
  C   -2.34768697731035     -0.87776957510007      0.10634996648268
  C   -0.96774944982222     -0.98246482153808      0.10212475614660
  C   0.05900526325610     -0.03969553883352      0.03437417685001
  C   -0.09567361696335      1.41597908246180      0.01293821496606
  C   -1.30906965448435      2.05711428345813     -0.17608028335993
  C   -2.61728858174698      1.60282606774737     -0.24498916690852
  C   -3.13240992259920      0.31712190517320     -0.07893699061157
  N   -4.46970785846195      0.16486525021844     -0.11275707475873
  C   1.09316043649368      2.21646891462502      0.10966752952141
  N   1.00510680554904      3.59153043458909      0.22985456955483
  N   2.33742925936415      1.74685263944657      0.04808971635986
  C   2.48560352920477      0.42778744405692     -0.04547804556624
  N   3.63328093227730     -0.25079808274171     -0.11361576815737
  C   3.20051310841031     -1.54395524789440     -0.10942642250821
  N   4.07445332074359     -2.56170291888974     -0.13687951597361
  N   1.86079316262396     -1.76739732549504     -0.04731988377342
  C   1.37025234463368     -0.51851986300005     -0.01154499943108
  H   -0.59547981179094     -1.99779016816570      0.17094342785522
  H   -1.23236961751106      3.12592739766800     -0.33193255273765
  H   -3.35909593869895      2.36981440445973     -0.43320998160750
  H   -5.07107077652328      0.95304548466330     -0.26150442465377
  H   -4.89628634840472     -0.74201485197240     -0.03239149320331
  H   1.91668472371473      3.99933361920771      0.36609258360878
  H   0.32805162909211      3.94277060677909      0.88496017010473
  H   3.72508269335899     -3.48790659281437     -0.29895916952128
  H   5.03180287777599     -2.36011646209054     -0.35805169891224
