27
Coordinates from ORCA-job ./opt_b97-3c_parallel
  N   3.99900659894670     -1.98087408252045     -0.59049962458142
  C   2.91187318428026     -1.36668545934454     -0.08493332308694
  N   1.87926545204545     -2.21805811910979      0.13360231589935
  C   0.64198230094864     -1.80871849030071      0.24722692267378
  C   0.04467352410064     -0.53980271334827      0.09274382105385
  C   0.72135015002415      0.74134919856601     -0.00163158415035
  C   2.11544593694798      0.83431732929149      0.35859724045898
  N   2.56788776613453      1.97077318189979      0.91202468129563
  N   3.06709672337953     -0.08387553938976      0.20045263655272
  C   -0.06649491148961      1.88910328981523     -0.23969586655342
  N   0.51857589774168      3.16403788669762     -0.39590219159892
  N   -1.40194107911859      1.91115952114727     -0.31238386984468
  C   -2.04025172205917      0.76313301403153     -0.13829745091402
  N   -3.36341147181296      0.55331460817906     -0.14188822223755
  C   -3.43685687870204     -0.79059864732592      0.03317018630451
  N   -4.62443186147452     -1.42574898412205      0.05518859016748
  N   -2.27125195022890     -1.48707556641116      0.15009678973438
  C   -1.35394900497823     -0.51294038792781      0.05488223749024
  H   4.86397469685229     -1.47737617018271     -0.65443108339760
  H   3.99609778083594     -2.98226032974938     -0.64993504222539
  H   -0.07164186385193     -2.60218523845661      0.44398619427268
  H   3.55775472728382      2.05592092748631      1.05657396245831
  H   1.97256503917155      2.78732633547814      0.94440224618345
  H   -0.21769018557909      3.81984358603016     -0.61722944506236
  H   1.22853664381690      3.19221694623229     -1.11476443855730
  H   -5.44601040211040     -0.86480100648798      0.18656937506641
  H   -4.63952311440468     -2.36970745297790      0.39527972839803
