28
Coordinates from ORCA-job ./opt_b97-3c_parallel
  N   5.92266534304909      1.82697469415262      0.51289778414657
  C   4.93932572812268      1.22235084243906      0.38059878995259
  C   3.75199440736776      0.48526171317975      0.21968996111816
  C   3.67717584478379     -0.92853415403187      0.06808713019476
  C   2.33095511925412     -1.26344451111970     -0.05444084917978
  C   1.67005062900471     -2.47014693291669     -0.29794376448766
  N   0.36193089890722     -2.57393202703892     -0.38259472574318
  C   -0.41301675314104     -1.45249020129807     -0.23941901232552
  C   -1.75450550965527     -1.72784201830549     -0.12574722400186
  C   -2.87616596137108     -0.89697026177827      0.10025936378909
  N   -4.04092898542273     -1.54729923342287      0.31835795715333
  C   -2.88917197190629      0.50807529922853      0.08090199338334
  C   -4.12802890797648      1.13498862240074      0.29593394282011
  N   -5.16337944620798      1.64027754145737      0.47077285250642
  C   -1.76907550666384      1.35066665662922     -0.23052870364881
  N   -2.04286134512239      2.64252802282529     -0.52276593184243
  N   -0.48280984565817      1.06788557754412     -0.22618899728696
  C   0.16879470200489     -0.08861194847988     -0.13985526561100
  C   1.55748547097028     -0.05311694294039      0.01679140215678
  C   2.45819742103598      1.02085877701725      0.17700675907561
  H   4.52090967908685     -1.59880260679182      0.04463483564596
  H   2.23056531979502     -3.39122651401967     -0.42647303225930
  H   -1.96678126473693     -2.78884405328294     -0.17168031427223
  H   -4.05438313520176     -2.54414683177038      0.41731430915382
  H   -4.89225347357728     -1.05005493360744      0.51104029355990
  H   -2.97188747240883      3.01920170974198     -0.47610880063557
  H   -1.26519963166173      3.27410368500952     -0.58300881388652
  H   2.20293896492936      2.06320748727895      0.25829533792437
