26
Coordinates from ORCA-job ./opt_b97-3c_parallel
  N   -5.51506337555551      0.79554016628295     -0.00264820291323
  C   -4.36749294180384      0.61869077729378     -0.00215796650478
  C   -2.96303068716552      0.41108030313291     -0.00153170757266
  C   -2.51275736833072     -0.90552687491230     -0.00124976471415
  C   -1.21587378534430     -1.38386849569762     -0.00064477403530
  C   0.03774386997427     -0.75899225586479     -0.00011956028661
  C   1.18097084050802     -1.61153076672083      0.00045474529468
  C   1.02595273671857     -3.01789530227504      0.00047455980282
  N   0.92115741862538     -4.17508725674711      0.00036869551523
  C   2.48597936011438     -1.11101486074296      0.00100267193120
  C   2.70721352432759      0.24519414056599      0.00098744930391
  C   3.88578950736323      1.00618859446877      0.00144346605923
  C   3.51683115348313      2.35905736813303      0.00115262095323
  C   2.12495135005615      2.46676565517968      0.00052881800859
  C   1.57579479779385      1.16342860113976      0.00040219709588
  C   0.25499809652118      0.69410258839523     -0.00014027029121
  C   -0.78578864650209      1.65081955218923     -0.00067823594060
  C   -2.15230015792848      1.55844671048364     -0.00126533382802
  H   -3.28297963927426     -1.66508874276546     -0.00154313393682
  H   -1.16599800473137     -2.46481156044620     -0.00055712974504
  H   3.31242738374492     -1.80893472728067      0.00143074554747
  H   4.89099140046393      0.61575980486940      0.00192517761559
  H   4.20156448899362      3.19294947941717      0.00137632762664
  H   1.58426913243161      3.39962455442658      0.00020099216025
  H   -0.42843016641151      2.67109670000899     -0.00060490556873
  H   -2.68322055267219      2.50108313896586     -0.00156846747756
