29
Coordinates from ORCA-job ./opt_b97-3c_parallel
  N   -5.30245349754802      1.58881868703196      0.35857517495720
  C   -4.42582129908432      0.84371748472279      0.19628640045947
  C   -3.31833143956196     -0.02851208570841      0.03264708387754
  C   -3.64112726095656     -1.32549659308361     -0.35050225787539
  C   -2.82131329708815     -2.43430264012583     -0.40695772144105
  C   -1.47023353358467     -2.48792889737743     -0.14873630162602
  C   -0.51531755799541     -1.47582858306359      0.04413769302948
  C   0.80945633773659     -1.95586143704924      0.16834823126610
  C   1.91490304059041     -1.13142995427275      0.18261063713335
  C   3.19754182977344     -1.72387970050207      0.32324131553551
  N   4.21713227815704     -2.26142527991510      0.44858538476720
  C   1.73654727081368      0.24900425630447      0.01497378826946
  C   2.64312914057943      1.30709373761203     -0.12320137409035
  C   4.04354303769459      1.25751559467273     -0.10634878594454
  N   5.20609512442609      1.26968254373999     -0.10024635287496
  C   1.88101740740949      2.49425131377486     -0.31738964951042
  C   0.53570035477514      2.20160138624892     -0.25945168930663
  C   0.38370760444450      0.79401771532343     -0.05558087809231
  C   -0.74120966823812     -0.04138527880834      0.04791734928334
  C   -2.04153622243391      0.54408401978092      0.31154604635023
  N   -2.05220935081920      1.78158560755688      0.82509493736269
  H   -4.68969371572979     -1.49103247085984     -0.55913567962842
  H   -3.30380269353130     -3.37316603775885     -0.64229391668439
  H   -1.04962124280762     -3.48568434903336     -0.16090833682137
  H   0.96184295487415     -3.02283333904584      0.22108301505004
  H   2.31034195767521      3.46649672349261     -0.49780149227164
  H   -0.24393377556601      2.91374545578950     -0.46725536408750
  H   -1.19391677865680      2.19568880370859      1.14671155329423
  H   -2.91637132394902      2.22288879214536      1.09101101131830
