30
Coordinates from ORCA-job ./opt_b97-3c_parallel
  N   4.05354189575320      3.19777847482638      0.09776802527796
  C   3.40712365480149      2.23025080151237      0.08711850585689
  C   2.68360055357663      1.01769487899519      0.05126902176999
  C   1.30982274692853      1.07947768868696      0.19333037223019
  C   0.32440927425804      0.09384243026508      0.10014279810611
  C   0.56136625259059     -1.32893501749756     -0.00449180438895
  C   -0.52912310267521     -2.17767975197712     -0.21685526567285
  N   -1.80984440663850     -1.80594405758010     -0.30035908295860
  C   -2.07019380989115     -0.52098765127125     -0.12590537731710
  C   -3.31829789083189      0.12652340382438     -0.12518126777846
  C   -4.59236046573630     -0.41190379163555     -0.30064914682249
  N   -5.68979241564059     -0.77621372530757     -0.44197515513466
  C   -3.06058454987648      1.51584795278137      0.06632348923653
  N   -4.02220892808007      2.45456354835484      0.15994931929908
  C   -1.66701980901985      1.73449191862575      0.18334535167855
  C   -1.02991058149845      0.50628328106691      0.07943971840804
  C   1.85418219576941     -1.91753255504246      0.21133026020654
  N   1.89399999317596     -3.19531813094650      0.64419760690813
  N   3.06381317182546     -1.42291634859775     -0.02694526738489
  C   3.44273305538592     -0.17733146447329     -0.21853880263437
  N   4.70549052259473     -0.02463596209850     -0.65811537205560
  H   0.93205724739883      2.08192619388480      0.34085666414705
  H   -0.35491622444450     -3.23289721700821     -0.38899290323834
  H   -3.78169611234416      3.42615592182987      0.09754828230114
  H   -4.96767125624219      2.20898345452266     -0.07802652758237
  H   -1.21888517476642      2.70370608506012      0.33691440427808
  H   2.79572758378120     -3.61896730098049      0.76867251939512
  H   1.09529575363807     -3.62853767265280      1.06557749152246
  H   5.12669412721257      0.88229450328163     -0.75115934501767
  H   5.28167497963081     -0.84185748103438     -0.74304145499845
