30
Coordinates from ORCA-job ./opt_b97-3c_parallel
  N   -3.85025506342977      2.01065626062811      0.11063104985843
  C   -2.82076113904040      1.07211103792423      0.05135806905277
  C   -3.20005990350038     -0.26531296316355      0.08071171434733
  C   -2.38160866320003     -1.38996235818585      0.09117872148475
  N   -3.02431026206299     -2.62182906434612      0.18857852159326
  C   -0.98533653444060     -1.43276355218994      0.07296137098593
  C   0.00100242306893     -0.45369352072050      0.02539109332117
  C   -0.25895383263890      1.00256271271106      0.01334709384549
  C   -1.52461538089784      1.58996623113632      0.02996182029944
  C   0.83345270538760      1.88276154130529     -0.01569280541414
  C   2.15975651230097      1.46796183778291     -0.03578737855041
  N   3.17178097885552      2.38999150414641     -0.10137972421788
  C   2.44048137786406      0.09053943782849     -0.04817464399965
  C   3.64424617302756     -0.62052006139603     -0.07376050390705
  C   3.32958356070622     -1.99437906352135     -0.05098979384884
  C   1.94791188965795     -2.14597295621605     -0.01033517437679
  C   1.35535680231336     -0.85660085644964     -0.00814947604500
  H   -4.74322753560346      1.68994179756450     -0.22340120241064
  H   -3.62268740443132      2.91768445209144     -0.26007495510459
  H   -4.26781385470764     -0.45483682345069      0.11976505492208
  H   -3.97236200445149     -2.64411248080964     -0.14634624559803
  H   -2.49424567226857     -3.41029522107176     -0.14144446238361
  H   -0.58940210897603     -2.44052139958833      0.09538851761377
  H   -1.49386334776985      2.67516617365720      0.02481421712903
  H   0.62542547077435      2.94604714992094     -0.01892849397182
  H   4.08129169245055      2.07607217059215      0.18730364249624
  H   2.95510237438665      3.32446630932832      0.19873698605428
  H   4.64207628574423     -0.21019863638352     -0.12714704709507
  H   4.04830949150075     -2.79997633160992     -0.06674003830383
  H   1.43325278628064     -3.09399135971444      0.01525764672336
