30
Coordinates from ORCA-job ./opt_b97-3c_parallel
  N   -5.99733266731083     -0.30274189567082      0.45411841348010
  C   -4.86109065904322     -0.08815974480242      0.34257048649154
  C   -3.49138975394891      0.19853999688028      0.20257012112724
  C   -2.94489106400581      1.50225741654302      0.03612831240112
  C   -1.56821488835343      1.37484319750429     -0.02819896969758
  C   -0.55770685912891      2.34150969195715     -0.17401388631508
  N   -0.83987850318515      3.64923605140308     -0.31929084143608
  C   0.76889254919534      1.90885769278969     -0.17590854159439
  C   1.15960937648100      0.58106540870323     -0.05225835144423
  C   2.56680312097646      0.35782735843108      0.06969167995817
  C   3.37349578340435      1.51442208952511      0.18951360445236
  N   4.10442044277692      2.41336740378850      0.29878602359033
  C   3.32807241713405     -0.84216978942018      0.09277768278132
  N   4.65809719431921     -0.76986669455301      0.30363462833861
  N   2.91707396365014     -2.10189969340155     -0.10842933786604
  C   1.68102238803285     -2.49912018490901     -0.22776136679440
  C   0.42796194402719     -1.85116544438814     -0.14936675107350
  C   -0.60169162654640     -2.81387872222523     -0.32237365500980
  N   -1.34513028298124     -3.69271840553996     -0.47865686671034
  C   0.11159606933443     -0.47472353489976     -0.02842938245713
  C   -1.22161300995145     -0.02808115507231      0.04818820876307
  C   -2.45314709141027     -0.72809466649700      0.22485714166646
  H   -3.53246058283314      2.40573956958745     -0.01491365446430
  H   -0.10500075312407      4.33230166673172     -0.31610664832075
  H   -1.77728743489790      3.98765380446155     -0.21553701093267
  H   1.53373269483157      2.66646283002186     -0.25201280540131
  H   5.17536402150257     -1.62739562778425      0.24435614230228
  H   5.14822322586580      0.09818517869104      0.41762551144411
  H   1.60403706843767     -3.56258090301400     -0.42768920664078
  H   -2.59981939454884     -1.78060366444155      0.36139365646168
