27
Coordinates from ORCA-job ./opt_b97-3c_parallel
  N   2.90195382292185     -2.81590836204174     -0.07085976620608
  C   2.38809106733506     -1.77322761821262     -0.00472763590243
  C   1.82833564237361     -0.47897498099902      0.06346751010254
  C   2.77761041042994      0.58075856396324     -0.08318198255741
  N   4.03472144476166      0.26100452156653     -0.46541066174753
  N   2.61453248588475      1.88233434111809      0.15099489517878
  C   1.46040594639183      2.48247437029444      0.39485685287866
  N   0.19815167046476      2.12674401156132      0.29992248330881
  C   -0.32029862083222      0.90477284481987      0.11969900937227
  C   0.41601143572927     -0.39508579933886      0.17807912262292
  C   -0.31630689898131     -1.57150611539271      0.25829373829256
  C   -1.71338136683911     -1.62258359554967      0.14046424083258
  N   -2.34652206326842     -2.81394278887151      0.22875055750409
  C   -2.42001906364767     -0.42209858470017     -0.05280265137101
  C   -3.77727562181701     -0.12579621300400     -0.17677237832379
  C   -3.91520661655545      1.28386947137093     -0.26407472669339
  C   -2.66448891641849      1.86481215052928     -0.17820723517871
  C   -1.69938860629415      0.82171448846281     -0.05261710626664
  H   4.72191927793697      0.98983311438053     -0.40288846904082
  H   4.34311226513006     -0.69072132246575     -0.54799274121529
  H   1.58813386552433      3.52225715673875      0.68557577067175
  H   0.21511857572378     -2.50931189390476      0.34197690954071
  H   -3.30998976741716     -2.88697996420094     -0.03902114464666
  H   -1.81322018251290     -3.66386290470323      0.20670263575798
  H   -4.59882848776989     -0.82763109531794     -0.18182819183209
  H   -4.85127428347504      1.80880418230297     -0.37353333829708
  H   -2.43131631037907      2.91563283809414     -0.20234314558473
