23
Coordinates from ORCA-job ./opt_b97-3c_parallel
  N   -2.26917588274790     -3.22052478019435      0.00128332930961
  C   -2.20862150558307     -2.05755439905647      0.00059305743330
  C   -2.11833922019506     -0.66320106244891     -0.00024825804028
  C   -3.20804297007423      0.23599071405736     -0.00106648808275
  N   -2.83379532293990      1.52478896973752     -0.00182149780901
  C   -1.48184341437371      1.50309680799816     -0.00154255327217
  C   -0.62044461744490      2.59082808424683     -0.00206855737963
  C   0.74197012822634      2.37396773923926     -0.00162615965281
  C   1.30918993514321      1.08603410567871     -0.00069308740671
  C   2.71891845580133      1.05532275205277     -0.00019378062625
  N   3.63256576610815      0.10076790642145      0.00030339935612
  C   3.38978160160187     -1.20558154144607      0.00084987369548
  C   2.18833020690001     -1.90291394619057      0.00129001023265
  C   0.89855186105155     -1.40857547649093      0.00085332147172
  C   0.42850816594395     -0.08843371756062     -0.00011892763780
  C   -0.95578000903584      0.15433658034935     -0.00053406081794
  H   -4.25055137189594     -0.04434791131748     -0.00113788134662
  H   -1.02588150472516      3.59331759123941     -0.00281910654975
  H   1.41077682593106      3.22319732244934     -0.00199500095693
  H   3.16581625464162      2.04656989235469     -0.00023777215434
  H   4.29057073298853     -1.81211717147736      0.00082112867401
  H   2.27975992898316     -2.98208315615763      0.00196834833852
  H   0.12886589229491     -2.16746009568448      0.00138504512160
