30
Coordinates from ORCA-job ./opt_b97-3c_parallel
  N   -3.75293538070695     -1.37259145088302      1.44469066499802
  C   -3.07316925252326     -0.64396844440698      0.84518027198029
  C   -2.27451016841732      0.34705334900482      0.21798312642471
  C   -2.92865302445855      1.58476675652410      0.11463092307353
  C   -2.45547245068452      2.80571340064600     -0.29849867067865
  C   -1.12864019280635      3.11200370537490     -0.61190834194340
  C   -0.01121865753138      2.32826561865760     -0.51095201885273
  C   0.16127207424135      0.95071808176992     -0.16754957361487
  C   -0.93108653696296     -0.01654631874298     -0.12881119530842
  C   -0.60729766815877     -1.37929865492189     -0.33734657153201
  C   -1.58563270249749     -2.33472578938283     -0.69458234518606
  N   -2.30765446858976     -3.16462650516017     -1.06979405792192
  C   0.72592683049053     -1.84437720772960     -0.29147039258231
  C   1.73561711099153     -0.96486033541516     -0.05660303931717
  C   3.14760122770366     -1.13870088577281      0.10330979298004
  N   3.80398765940053     -2.32467208983665      0.03119573686347
  C   3.72038857326808      0.12085558743703      0.29365817374490
  C   2.70845995585132      1.09717882991567      0.24724854010766
  N   2.92179512714911      2.43201641522675      0.41010276274636
  C   1.45114659575152      0.45249547890608      0.01255109462706
  H   -3.97270423942880      1.55388459018008      0.39944619394394
  H   -3.17594465640333      3.60955763213245     -0.36727638217177
  H   -0.95018387933157      4.12156508559902     -0.96519187343237
  H   0.89557970785148      2.80247969366604     -0.85962858125172
  H   0.90021295469463     -2.90132507627461     -0.44374774496195
  H   3.27547911782293     -3.16669652135890      0.17335121883539
  H   4.74551838313287     -2.36617052054281      0.37829941126648
  H   4.76660863062896      0.31825292517192      0.47134998819517
  H   2.13746992686542      2.98395115726071      0.71825273044706
  H   3.79203868045717      2.69513167155499      0.84143682522128
