28
Coordinates from ORCA-job ./opt_b97-3c_parallel
  N   -5.85183019531813     -1.01903746211580     -0.30220134223728
  C   -4.77838497769968     -0.57603798068626     -0.21432817166926
  C   -3.45423200216151     -0.10895516774496     -0.09759912868550
  C   -3.24473731863872      1.26117307529928     -0.11216055971470
  C   -2.07741926356746      1.99243674146910     -0.00779204298273
  C   -0.74575953607745      1.57069578967437      0.07794613844277
  N   0.14977453738996      2.58631016148533      0.14393018059915
  C   1.45128368102122      2.33034127239617      0.12152895768865
  C   1.96145222435306      1.05305760830023      0.01233626409311
  C   3.27662291020697      0.52629853326626     -0.03454552911934
  N   4.44455552317594      1.19091320032093      0.00001914655393
  C   3.15705323463492     -0.90398688028327     -0.08259165150643
  C   4.26453970173855     -1.75846181389162     -0.14907805676810
  N   5.23134864282129     -2.40337830451167     -0.20638307690475
  C   1.80209147765366     -1.24322747371555     -0.06376084984436
  C   1.04499549710872     -0.05653542048639     -0.01262821496396
  C   -0.33740651342704      0.15309841929289      0.05478278283757
  N   -1.11422445255884     -0.93885349568393      0.11768063257523
  C   -2.41703370092091     -1.10063023550513      0.09129212879380
  N   -2.82575690049545     -2.37749511761226      0.24921520380010
  H   -4.14542128532413      1.85261550151944     -0.21788079260674
  H   -2.18457207069723      3.06805505948886     -0.01551426216079
  H   2.09733755182466      3.20116082116048      0.19378087453754
  H   4.47182401483427      2.18395943426676     -0.13570958027739
  H   5.30264992269692      0.69094038276535     -0.15629270720604
  H   1.40821940015120     -2.24425423761039     -0.09235525605957
  H   -2.12192282945289     -3.08756919258919      0.33291719608576
  H   -3.79380837307189     -2.64096298426910      0.21896399509929
