31
Coordinates from ORCA-job ./opt_b97-3c_parallel
  N   5.53822348854246      0.60338259526345      0.85962170712376
  C   4.40021866821110      0.64180462906693      0.61733963929416
  C   3.02319227775222      0.63893223997681      0.30593342024759
  C   2.38126861914379      1.87249740439932      0.31593474371790
  C   1.07708219884696      2.21986896956073      0.05456852309830
  C   -0.06423194254136      1.42603341119973     -0.12880540153793
  N   -1.19172156706643      2.13728971558932     -0.31525271944143
  C   -2.38223922965617      1.54314866455834     -0.29137839556240
  N   -3.46871569736292      2.34281141424951     -0.55229686555625
  C   -2.51393273086561      0.19744328381298      0.04131573900522
  C   -3.61805266578947     -0.62157166759496      0.33233153242646
  N   -4.92845382482545     -0.23244619744171      0.38978535389162
  C   -3.12962362143362     -1.94499875728011      0.54930004439210
  C   -1.76208659569030     -1.94550945114422      0.40929434350013
  C   -1.32542771174970     -0.61298374559824      0.10551024676069
  C   -0.07056590749742     -0.04339221019259     -0.08138859987071
  C   1.08957201980704     -0.85877995359326     -0.34089263026098
  C   0.84844106865150     -2.14872337744005     -0.86140677807223
  N   0.77793224988732     -3.21943013061878     -1.31522760249168
  C   2.46405025271446     -0.60905289073847     -0.11639528291718
  N   3.34042650689478     -1.61890903253457     -0.30476650386861
  H   3.03087786537656      2.70491762714430      0.55603067248452
  H   0.85729722919329      3.27820262869559      0.06197418581061
  H   -3.21077936788365      3.24854961020779     -0.91274810227869
  H   -4.22168170186711      1.90796400267492     -1.06108664868902
  H   -5.55928723191818     -0.87866776903586      0.83369248416504
  H   -5.09464515672861      0.72278088030665      0.66542570090209
  H   -3.74101025297245     -2.79606040560151      0.80784880948833
  H   -1.13082382143078     -2.80382117014549      0.55268138976694
  H   3.03069745507478     -2.52310840252256     -0.61326871362892
  H   4.32867096568226     -1.45751136622522     -0.23324205609828
