25
Coordinates from ORCA-job ./opt_b97-3c_parallel
  N   -4.32306612014683     -1.19832602190838      0.05252948363193
  C   -3.09529115323363     -0.58822306425534     -0.00116176388417
  C   -2.88314926091278      0.81044366368983      0.00551826428772
  C   -1.50939252808659      1.02030378812785      0.00440136744796
  N   -0.85264221298604      2.18336252050300      0.00167673838900
  C   0.46911755268136      2.12835108887105     -0.00157908395105
  C   1.25697249097160      0.95289992886309     -0.00145475260106
  C   2.63302845102629      1.14386332765626     -0.00443239153804
  C   3.70179274122131      0.24890333410515     -0.00475112373719
  C   3.66201148744309     -1.12972021540858     -0.00131679808697
  C   2.53503916013185     -1.95268276373885      0.00261084220629
  C   1.20275551173364     -1.59751656092620      0.00393723696677
  C   0.55848832415199     -0.34926901141615      0.00191278267796
  C   -0.83921063550758     -0.29151253309378      0.00223067314445
  C   -1.85523490559886     -1.25784702824320      0.00060953250978
  H   -5.10417407089167     -0.65013268680482     -0.26387547276979
  H   -4.36125771508894     -2.15102445296956     -0.26678217126986
  H   -3.64086958454980      1.57744719389714      0.01294085677291
  H   0.98524198413862      3.08286615959983     -0.00423025860172
  H   2.92833081718280      2.18815040505282     -0.00686449612429
  H   4.68620380150821      0.70037200171863     -0.00751939913109
  H   4.61971985165051     -1.63702686090597     -0.00167207737810
  H   2.73148238883422     -3.01783336938396      0.00562552399125
  H   0.52103447764567     -2.43951464103502      0.00770162605550
  H   -1.74247305191844     -2.33144780399484      0.00461727259181
