24
Coordinates from ORCA-job ./opt_b97-3c_parallel
  N   4.31923811302721     -0.70731159620486      0.33450526355463
  C   3.05705444296775     -0.47329261755628     -0.05246956753050
  N   2.80262451305713      0.80070826470281     -0.38757093425261
  C   1.60024271811693      1.34390309725445     -0.39037754282036
  C   0.33633437996644      0.84970222617494     -0.05425609463623
  C   -0.73722939251425      1.78323225362795      0.08708338552880
  N   -0.48067297634605      3.13934922109310      0.15960519012970
  N   -2.02548121545978      1.45028946766445      0.11824592865045
  C   -2.33988233053567      0.16271050538218      0.06540350635015
  N   -3.58488418486377     -0.32643316754018      0.07070567931068
  C   -3.41558614055696     -1.67638776050986      0.05278768622839
  C   -2.08288822302850     -2.09921039633571      0.02714329084145
  C   -1.32784695725709     -0.92157126298337      0.02728614997765
  C   0.02067025090600     -0.56993339589136     -0.02621673648444
  C   0.98675834855396     -1.59120166393701     -0.15804199152716
  N   2.29655021998672     -1.58742569848419     -0.12777862051689
  H   4.98683848707060      0.04162052632426      0.31449740105890
  H   4.61930521297413     -1.65280004883098      0.48605055825527
  H   1.61521604188894      2.38189717461690     -0.71021378983767
  H   0.27672725880929      3.42767683467880      0.75426590235765
  H   -1.32507204296149      3.66414938371069      0.32497669967613
  H   -4.28344922849330     -2.32137043213545      0.06248651152520
  H   -1.73983828967777     -3.12090729128652      0.02064936304817
  H   0.56889760936948     -2.58586588003467     -0.27856168448728
