28
Coordinates from ORCA-job ./opt_b97-3c_parallel
  N   -5.72588778207559     -0.19116802311096     -0.20116883535203
  C   -4.61691356448276      0.15621286408680     -0.14259953491004
  C   -3.25824769975817      0.48628306354630     -0.07502417552606
  C   -2.67270578674901      1.75528888310148      0.01828159758322
  C   -1.27479253338448      1.59788777604635      0.05469405720652
  C   -0.22003632747151      2.47791339782144      0.18293259003415
  N   1.04467842728181      2.06970778586120      0.18298111598829
  C   1.36232866554892      0.76669489321995      0.07736145651824
  C   2.75258523276407      0.51677367540505     -0.04209461625614
  C   3.60756674921375      1.65031778434203     -0.04902820447960
  N   4.39653166134096      2.50268530220857     -0.06503786721477
  C   3.40857567391372     -0.71539031989681     -0.18494722682848
  C   2.91538629491601     -1.98763269818448     -0.17072102563619
  C   1.56576250363938     -2.37536490658864      0.02720267096895
  N   1.34286307841247     -3.71857020789994      0.13229759747767
  N   0.47170555830547     -1.63680734771714      0.07377906719790
  C   0.33274176444819     -0.28963757140604      0.03426277726504
  C   -0.97021536670954      0.19616392861751     -0.01744807295368
  C   -2.21473483282079     -0.49563726791621     -0.08823168674753
  N   -2.36248154734171     -1.81618742553791     -0.15502220332308
  H   -3.21404061919011      2.68616680001061      0.05669545538080
  H   -0.37650108795547      3.54617246373075      0.28416540208941
  H   4.48047241716384     -0.63566075761270     -0.31146744242705
  H   3.63337956572264     -2.78829220150360     -0.29059785753433
  H   2.11153838050094     -4.32446473099588      0.35411788973051
  H   0.44644688821460     -4.00072283009483      0.48678112597528
  H   -3.27020280974332     -2.24200157730966     -0.22507868242835
  H   -1.51403428110430     -2.36431771032324     -0.14921778059864
