31
Coordinates from ORCA-job ./opt_b97-3c_parallel
  N   -3.34815630952670      3.20492631869526      0.41910701031898
  C   -2.78840535365919      2.19225780967414      0.27244904226035
  C   -2.10458773717066      0.97885308216323      0.09575860210713
  C   -2.84602016407832     -0.09735989100847     -0.47382492258016
  N   -3.95693914912345      0.20035333265875     -1.18740980228086
  N   -2.62434867411353     -1.38207955839183     -0.29396165521583
  C   -1.52538829797547     -1.96451228924431      0.15754589995800
  N   -1.73955979747875     -3.21371727930800      0.63499071972630
  C   -0.16912662991631     -1.49881605255515      0.06699226823835
  C   0.82564611797889     -2.48276816537683     -0.06645515120157
  C   2.17112282153449     -2.18214904490958     -0.15292233150458
  C   2.57185522415068     -0.85963874002094     -0.10370682972593
  N   3.82246675307907     -0.37477632188206     -0.22108198543095
  C   3.67774059328090      0.96919281085384     -0.18873267758549
  N   4.78385190712721      1.77050744343784     -0.26729147644375
  C   2.34181365330004      1.38999340296574     -0.02309262237560
  C   1.57768710214645      0.20846998703681      0.02982839199697
  C   0.20283559080328     -0.10905399147477      0.13754632593844
  C   -0.73544032788544      0.94125054149989      0.45071908174299
  N   -0.24118547745940      2.02952607693840      1.05914675182474
  H   -4.61314207979706     -0.54233063696205     -1.34731831007138
  H   -4.30026372595979      1.14332813113462     -1.22445247614019
  H   -1.05804167947179     -3.65696183575963      1.21980332478815
  H   -2.69008273234764     -3.53358048913851      0.68065675375309
  H   0.52312899267866     -3.51165384608533     -0.19359744971428
  H   2.90666977568438     -2.96259429465265     -0.29332445025478
  H   5.59337071728301      1.31062882448930     -0.65008864875281
  H   4.64234953296015      2.70326094461966     -0.61357474910000
  H   2.01112528307142      2.41365593837380     -0.07678802889547
  H   -0.82847655332243      2.80968822721837      1.29462528616359
  H   0.71106661870738      2.02524241041051      1.38251406565657
