28
Coordinates from ORCA-job ./opt_b97-3c_parallel
  N   -4.02443031477796      0.40923892854142      0.18588555213923
  C   -2.81403619835013     -0.24943115311666      0.08622833821380
  C   -2.63217010643842     -1.63877878297451     -0.05139821298521
  C   -1.26399238515658     -1.91362744127910     -0.12941475721453
  N   -0.71556531039847     -3.16753497306160     -0.25369628301967
  C   -0.54520553099151     -0.67523125188090     -0.02321304484508
  C   -1.54721501443098      0.36567423970798      0.05544800492930
  C   -1.12642570990706      1.68415571003293      0.02712221557773
  N   -2.00749424265723      2.74217118984601      0.02466898951627
  N   0.17354086359788      2.01854694226917      0.00934848267153
  C   1.12251332557789      1.07269895871648      0.00839095312073
  C   2.43943925397777      1.56895089017031     -0.09955879513153
  C   3.67125534894083      0.93942707715106     -0.16034509424588
  N   4.05279530519896     -0.32475824501304     -0.01472821882054
  C   3.17586101275372     -1.30528503456812      0.22929394779877
  C   1.80019792412664     -1.35493233578657      0.25022304261305
  C   0.80506734587540     -0.35984668884132      0.04741280567207
  H   -4.80605848336892     -0.19155484098079      0.39227179636741
  H   -4.01053989189420      1.20414387576789      0.80709835000206
  H   -3.42168535260938     -2.37513911834951     -0.08495951788421
  H   -1.35071378486357     -3.87162589505751     -0.59300628419527
  H   0.17249999659821     -3.20662280153336     -0.72798735136214
  H   -2.85794261588944      2.59714801762790     -0.49579701393138
  H   -1.55238679425719      3.61560576330169     -0.19123019848254
  H   2.47088439067552      2.64657809027503     -0.19657003335771
  H   4.50504475386894      1.61509361738388     -0.33804427725788
  H   3.65890758160104     -2.25709590179001      0.43910392029016
  H   1.41919724029826     -2.32846568805932      0.52658832202168
