29
Coordinates from ORCA-job ./opt_b97-3c_parallel
  N   4.06890115965775      1.81185269041236     -0.59570472242997
  C   3.04394540716606      1.01821280484147     -0.18894898297918
  N   3.41747674503519     -0.24009978337195      0.05604034834496
  C   2.55376510669682     -1.23701521910868      0.26633502008053
  N   3.17058504439836     -2.40013071032455      0.63344481670878
  N   1.23086434351896     -1.33333811328222      0.17112435678466
  C   0.37001486813226     -0.29548313046590      0.05128940113770
  C   0.67915841802575      1.15866160365856      0.07365192540382
  N   1.89058747304388      1.68452279035531     -0.08828083040286
  N   -0.30275119286708      2.06600608219389      0.22685068483112
  C   -1.59214256101176      1.72952228202990      0.19916726049236
  N   -2.49690861667829      2.75333618091776      0.39971888747105
  C   -1.98980489021429      0.42298007103187     -0.05875711124470
  C   -3.20875028432424     -0.28551794984110     -0.19232586298264
  N   -4.46031657509552      0.24095398849761     -0.22502605749491
  N   -3.02535709292079     -1.62863656340601     -0.25633809520032
  C   -1.69331310468629     -1.81586065031665     -0.17729058076500
  N   -1.10502147349242     -3.01033136374171     -0.20649204330586
  C   -0.97547134662691     -0.57379456563893     -0.08177292470365
  H   5.00301974572643      1.45821338435908     -0.50480593390599
  H   3.91494431976771      2.80298917283386     -0.58535745972343
  H   4.15692265989382     -2.45563494691043      0.45633250694374
  H   2.63755158857627     -3.24653110208867      0.56199482893706
  H   -3.30927264939004      2.50651079815865      0.94284439729550
  H   -2.04584343086686      3.59223174312682      0.73202077027317
  H   -4.54624501875398      1.16901994073694     -0.60538779774070
  H   -5.17818858034045     -0.39973659189304     -0.52232192804444
  H   -1.65658095606279     -3.84791393467750     -0.15625368755661
  H   -0.10737457710704     -3.01054972078772     -0.03256315432434
