33
Coordinates from ORCA-job ./opt_b97-3c_parallel
  N   -5.30374440772370     -2.64961446255209      1.14670378422075
  C   -4.45835976151966     -1.93557481028548      0.79664089811848
  C   -3.41040681992788     -1.07692585987213      0.36419129666537
  C   -3.76271708755553      0.21905733646212      0.03062167350063
  C   -2.90820154035445      1.26303280584968     -0.34512134193493
  C   -3.54593096205271      2.48375569742790     -0.70496089046812
  N   -4.07922193549934      3.46816708126487     -1.00905298209176
  C   -1.51280604152654      1.27877833773741     -0.32340653699647
  C   -0.56896652206356      0.27441638394247     -0.10048479904248
  C   -0.89990990839724     -1.17110441276644     -0.07284330353166
  C   -2.13996564540601     -1.68238239666518      0.23781616097440
  C   0.15388094740390     -2.12500229717656     -0.26533094793114
  N   -0.14343203865861     -3.44677415678338     -0.44035723259931
  C   1.49773188558910     -1.71427799138319     -0.20068222550250
  C   2.49818782734729     -2.69656006628229     -0.37558205449319
  N   3.24253609838113     -3.57270411873726     -0.53962586642783
  C   1.82298140981880     -0.37027503087572      0.01272999338519
  C   3.06326343111482      0.26481813892232      0.12930823589367
  C   4.35148645766661     -0.27491153564613      0.15900807263668
  N   5.46269230323034     -0.61751920323382      0.20086875862678
  C   2.81728081861753      1.67128591538902      0.23290497406153
  N   3.75853729230838      2.60263341090271      0.38004834777727
  C   1.41890986772932      1.89762071793881      0.16889808127405
  C   0.87269430520412      3.17323646468208      0.29967262069355
  N   0.48401152617665      4.26602223628471      0.41446932882313
  C   0.77712501452523      0.63620097495034      0.03011491960749
  H   -4.81596160036274      0.45928349675249      0.07614758672700
  H   -1.09505141811532      2.25653444380929     -0.51367119976176
  H   -2.15422352826642     -2.74394006815113      0.44545141279224
  H   0.63307756022344     -4.07513511058708     -0.56859181307590
  H   -0.93991802821021     -3.68011989223413     -1.00561844920299
  H   3.51706070470436      3.57535003596553      0.44945748921846
  H   4.72827332590263      2.34744343604916      0.44348277146098
