34
Coordinates from ORCA-job ./opt_b97-3c_parallel
  N   -3.95517183861759      3.19523787128202      0.41412445881307
  C   -3.34442809884760      2.21558842149413      0.25414000804716
  C   -2.62327793070382      1.02304887023846      0.06577271181707
  C   -3.34292827369200     -0.17894512396675      0.26823311961102
  N   -4.53755520278751     -0.12225993773888      0.90199763727448
  N   -3.02067532395747     -1.38159116020350     -0.18257538612548
  C   -1.82574745394270     -1.83383401782499     -0.49938950963693
  N   -1.84046678540886     -2.94178287360554     -1.26847393090855
  C   -0.53098712713293     -1.30104605581545     -0.10297456036512
  C   0.51457387327495     -2.20518501782817      0.20038628738908
  N   0.25964209117381     -3.59261421709806      0.32777804839083
  C   1.82831252184935     -1.77533255274949      0.33325951148864
  C   2.14110025361354     -0.45128798912028      0.11464578694567
  C   3.34667798620002      0.28562666072292      0.13690497768903
  C   4.64101691376812     -0.17521894638432      0.36238485851576
  N   5.73485913570368     -0.53671107231585      0.54224658945795
  C   2.96723505682295      1.62296153814465     -0.15136513632404
  N   3.79436759916162      2.69575743571900     -0.19769961265775
  N   1.63957665192513      1.74822378237707     -0.34096233019693
  C   1.10202626852931      0.49954677167885     -0.17908648437941
  C   -0.24862177859919      0.10929636504258     -0.21697691486201
  C   -1.25915992420248      1.14896880991791     -0.31802542601996
  N   -0.84423871125316      2.36218161781663     -0.68453249131750
  H   -4.96419881386188      0.76395387790182      1.10713126119394
  H   -5.14222354648158     -0.91708461140564      0.80069793663943
  H   -1.00902250633367     -3.51392677404898     -1.30377449952568
  H   -2.72918656379418     -3.40035737483294     -1.37613446254471
  H   1.08140239571133     -4.08621090621096      0.64028903462414
  H   -0.50116762682883     -3.79909402730891      0.95971696834185
  H   2.60322351363308     -2.48368120018927      0.60096498523484
  H   4.77568486086036      2.51608613702570     -0.31979459581904
  H   3.44299306692747      3.51227262379467     -0.66576615978876
  H   0.17565141924958      2.53221967725540     -0.69628030781213
  H   -1.47775445095860      3.14173457813646     -0.61575308668956
