30
Coordinates from ORCA-job ./opt_b97-3c_parallel
  N   -4.86972861558654      2.86606783755181      0.00059318008100
  C   -3.92082827361210      2.19644985261495      0.00032149459397
  C   -2.80703208680319      1.31601228160970      0.00023728442492
  C   -1.56156805762481      1.92333580283513     -0.00030451550257
  C   -0.24354644831744      1.45262217688461     -0.00045960210797
  C   0.75214998669184      2.45284606927935     -0.00098527126364
  C   2.09674628520429      2.15840527643506     -0.00112019106455
  C   2.50320526147431      0.83394466865874     -0.00075412975195
  C   3.79347875134828      0.26138940450163     -0.00075247888256
  C   4.99874041941756      0.97690397301203     -0.00112202722011
  N   5.98124912508468      1.59838296189290     -0.00135986289562
  C   3.63823169350942     -1.13423319185602     -0.00026033970212
  C   2.27217554327716     -1.45695547579323      0.00006088903700
  C   1.78682526376223     -2.77061304510621      0.00062393456572
  N   1.37353787735622     -3.85880779974529      0.00125488981230
  C   1.52592685162330     -0.23867836593577     -0.00024130628166
  C   0.14592042162891      0.05398159760790     -0.00007811442230
  C   -0.76549929093054     -1.01708452200430      0.00048254314743
  C   -2.14421538719702     -1.10646654916797      0.00086194135340
  C   -2.67707534030374     -2.42482820576328      0.00149713145642
  N   -3.19625301529116     -3.46305408574639      0.00207346273666
  C   -3.12831385891743     -0.07036423005274      0.00078290241577
  N   -4.41868621662090     -0.42422738046545      0.00126703614406
  H   -1.62864982292950      3.00379388973764     -0.00064151069495
  H   0.43773167717407      3.48697638578626     -0.00126141817915
  H   2.83232503048554      2.95168236476713     -0.00149825004370
  H   4.44003585777489     -1.85364360141555     -0.00012665045939
  H   -0.29867393157432     -1.99042644405938      0.00070154364769
  H   -5.14811113803210      0.26850947746057      0.00127911260839
  H   -4.69052843447187     -1.39315058642383      0.00169851214746
