27
Coordinates from ORCA-job ./opt_b97-3c_parallel
  N   -3.92896893725672     -3.08688832310322     -0.05589838389548
  C   -3.34813596200810     -2.08174971770514     -0.02732430472337
  C   -2.67196502756409     -0.83484148318154      0.01005514570372
  C   -3.49817374645281      0.31335963314738     -0.01473985705929
  N   -3.19920291324886      1.56740024461656      0.19662042658301
  C   -1.97776606192301      2.10861571802824      0.30458402691475
  C   -0.71475771290977      1.63066677564809      0.01009430949311
  C   0.34844618276246      2.59045190422854     -0.09692498209551
  N   0.06960534613016      3.92616222913667     -0.20156506669749
  N   1.64385780356166      2.28769793469819     -0.07122246807739
  C   1.98314664249196      1.00829971709877     -0.00725977304097
  N   3.24786309576813      0.57139964216273      0.03641847056210
  C   3.15565862664599     -0.77636495280594      0.02745408892882
  N   4.24562353391275     -1.54296977026534      0.05926178967117
  C   1.80280379515810     -1.25511041530269     -0.01591323496673
  C   1.44790217926527     -2.59993710732697     -0.02139301005244
  N   1.19863745278476     -3.73936459538119     -0.02451083879322
  C   1.01026633143959     -0.09394158256217     -0.02901383711176
  C   -0.35658388619623      0.19411405865407     -0.03652550370141
  C   -1.27673685857361     -0.85150048406731     -0.00332758817303
  H   -4.55044933322078      0.12954639317544     -0.21205979594836
  H   -2.01953539477474      3.13649358529585      0.65002267253796
  H   -0.72789810762445      4.21318768629930     -0.73894835409148
  H   0.89013987982766      4.49335762843177     -0.33771356401849
  H   5.14963306691534     -1.10871533086146      0.09753706590413
  H   4.18110383176140     -2.54439903005822      0.05245145561991
  H   -0.84484475007184     -1.84285421079950     -0.01962548937160
