26
Coordinates from ORCA-job ./opt_b97-3c_parallel
  N   3.56136759446447      2.08142715401105      0.19200091711137
  C   2.79316656751518      0.95977509442921      0.02740966897835
  C   1.40817415999119      1.12627891489569      0.00249730007166
  C   0.38364505694537      0.17842307764413     -0.08453505134394
  C   0.63375431888522     -1.27893765032989     -0.03257189099569
  C   -0.45426340218133     -2.14073603282540      0.15199672425720
  C   -1.76793387193024     -1.69602272589249      0.19238699655330
  C   -2.04241181342650     -0.35458515864783      0.03613769862864
  C   -3.26241869057813      0.37873338236808     -0.01140456324311
  N   -4.51753885159250     -0.13047735846225      0.15767806750938
  C   -2.93878402710615      1.74210968533091     -0.19702756962713
  C   -1.55719505976182      1.86515520720026     -0.26440133312106
  C   -0.96074634409395      0.58572261397760     -0.12333602047528
  N   1.82225990711395     -1.89507108258915     -0.18658367347577
  C   3.02396056284002     -1.36027128488717     -0.30332936886205
  N   3.53339526069593     -0.14810576575184     -0.15484820965475
  H   4.53284600627357      1.90806903624348      0.38192597526225
  H   3.15949286155173      2.89464587214721      0.62103926433502
  H   1.07588229838561      2.15314720242637      0.09681864794477
  H   -0.22606255151110     -3.19393898062027      0.21617944264446
  H   -2.56180378711179     -2.42297532845114      0.32730417072865
  H   -5.28487672995590      0.43494941961700     -0.16128260005534
  H   -4.64553094688960     -1.11180270108751     -0.01785026136939
  H   -3.65275851606520      2.54702816003291     -0.28255210306636
  H   -1.03765586154076      2.79516252675384     -0.43726761445608
  H   3.78726349148274     -2.10204297263276     -0.52866793867909
