27
Coordinates from ORCA-job ./opt_b97-3c_parallel
  N   -4.65098658234261      1.07372719686992     -0.50212533606127
  C   -3.68844371374197      0.45303121183904     -0.31850458979889
  C   -2.52971531495435     -0.34793434591379     -0.09945821700692
  C   -2.78351861735913     -1.70497328775497      0.19467415929858
  C   -1.85912964268830     -2.69318613252007      0.40456046201081
  C   -0.46784776689275     -2.63359085566152      0.27793803510137
  C   0.39368658839127     -1.58627591175381      0.00134830970032
  C   1.78860381384693     -1.90892728174265     -0.16945634863383
  N   2.17998441149812     -3.22967404183952     -0.31281165164504
  N   2.76275976681993     -1.01775302873330     -0.12851807625139
  C   2.43904346691199      0.26922388801513      0.01688028790324
  C   3.30111851084582      1.36505964367708      0.08929901686585
  C   2.51456807998404      2.51980144165676      0.13864641163751
  C   1.14834363126631      2.18040509668274      0.09309986131618
  C   0.09956308319699      3.10126422946076      0.14590850964575
  N   -0.78395203619867      3.85990510936388      0.18672385771856
  C   1.06142343094231      0.75365135079709      0.02591167852112
  C   0.01543384555657     -0.16205437949269     -0.02667681060323
  C   -1.31038710370007      0.30615123495804     -0.14971961546401
  H   -3.82623089046461     -1.98205578716940      0.27312178834144
  H   -2.25703470805332     -3.66555199598235      0.66445035517828
  H   0.02534712408795     -3.58187479225904      0.44829030801087
  H   3.17416105489434     -3.29598854694243     -0.46627773629476
  H   1.66187478462801     -3.77390131522930     -0.98296498202575
  H   4.37693922233597      1.31634797414342      0.09664438045453
  H   2.87896450162667      3.53241433117421      0.20521349519643
  H   -1.39254655403820      1.37129674075708     -0.30848414791574
