27
Coordinates from ORCA-job ./opt_b97-3c_parallel
  N   -3.91676303322878      2.59471508106607     -0.00354429170650
  C   -3.29905350037340      1.60800047231816     -0.00226435407605
  C   -2.55573229815713      0.40488105605574     -0.00112803010188
  C   -3.32874757728628     -0.74814242870931     -0.00445259617514
  C   -2.94335968621779     -2.07773806500315     -0.00549211390430
  C   -1.63970694842923     -2.56522429048885     -0.00446381796605
  N   -0.46728896925734     -1.97118394754466     -0.00291229239007
  C   -0.20160719915945     -0.61884886849710      0.00019201478819
  C   -1.10796725042548      0.52074485118585      0.00360664082743
  C   -0.55746889236023      1.80816163408538      0.01057893987748
  C   0.81200691740966      2.07998639820331      0.01218557670821
  C   1.67985146456705      1.02127380436024      0.00593824448621
  C   3.10939998611767      0.84847294595330      0.00209268761704
  N   4.03555871867401      1.81857235322405      0.03601741854691
  N   3.46840811873087     -0.44724550033210     -0.00062638794637
  C   2.31221996545181     -1.15321307991024      0.00002605760377
  N   2.25963506897259     -2.47446146615394     -0.00472712708268
  C   1.15174923430401     -0.30225878111221      0.00131730614936
  H   -4.39766477876723     -0.57141263165225     -0.00672079581267
  H   -3.72999790833584     -2.81950353713852     -0.00767369139971
  H   -1.55987309537740     -3.65129880305779     -0.00561758947255
  H   -1.23669184428397      2.64727248790326      0.01526403469760
  H   1.14440950494250      3.11059570857819      0.02205608134628
  H   4.99569964839732      1.55948968697468     -0.10686512668832
  H   3.78004684982798      2.77000451937089     -0.14922606273092
  H   3.09963783921810     -3.02571279932876     -0.00017810769631
  H   1.31815890294592     -2.86603469505025     -0.00411064899901
