26
Coordinates from ORCA-job ./opt_b97-3c_parallel
  N   4.08223918109083      1.19987473577649      0.06536708489535
  C   2.84996108201556      0.63130376019749      0.02339256349756
  N   2.89409330983818     -0.70663068388212      0.00416101126167
  C   1.81981075323989     -1.49100101876581     -0.01666990559035
  N   2.13524718931294     -2.82015527015166     -0.03019152007014
  N   0.50344154143285     -1.26156850146129      0.01384363830148
  C   -0.09227607376019     -0.05126449939207      0.00385724792425
  C   0.55233515684088      1.27835285383587     -0.05382342944292
  C   -0.27589903413987      2.42132938573656     -0.11923247299765
  C   -1.65758652656956      2.37993851412195     -0.10048941418438
  C   -2.28037642208848      1.14445468516154     -0.01229321401690
  C   -3.62026771307374      0.68991799118856      0.04485940455505
  N   -3.71916437009402     -0.64650989627797      0.13083090780295
  C   -2.43413390815639     -1.10093608496752      0.12731305714166
  N   -2.11922817006813     -2.38613135328020      0.20108677874485
  C   -1.48307349917282     -0.03038416741518      0.04065289274498
  N   1.86709756380126      1.52989502428160     -0.02959437729839
  H   4.87188612052478      0.61597316734186      0.26672219989018
  H   4.13876136393303      2.18807921494829      0.22501699352187
  H   3.08358117434441     -3.04809929693065     -0.26715163066834
  H   1.41972678357851     -3.46029272586431     -0.32022899901168
  H   0.24208447465724      3.36794726306624     -0.17148052862049
  H   -2.22837808100059      3.29874292823941     -0.14691202249523
  H   -4.51259835573917      1.29984332304631      0.02611287528940
  H   -1.12932996876345     -2.60284602423067      0.21215781593832
  H   -2.83667004378395     -3.08321275232276      0.29692262418687
