27
Coordinates from ORCA-job ./opt_b97-3c_parallel
  N   -5.44917091690182     -0.68896654950734      0.17339499820198
  C   -4.37447117821967     -0.24383740783216      0.16830684737760
  C   -3.09312319504355      0.32033074253794      0.16536516811387
  C   -2.78414220899607      1.69558300508229      0.33964985775441
  C   -1.41520000248103      1.89822313327035      0.25520503243027
  C   -0.79504062843868      0.63757092836850      0.04632609042529
  C   -1.87403066995726     -0.35764027600909      0.00041557542846
  N   -1.67551454422741     -1.66505693840957     -0.19366623156482
  C   -0.42693485358304     -2.06259985739279     -0.29860036077606
  C   0.71894431891944     -1.22333000213057     -0.23885191130690
  C   1.96063273043958     -1.89025839212169     -0.26781272818088
  C   3.22698036242335     -1.43974961899887     -0.03835790347205
  C   3.59229821465965     -0.09998387314214      0.23188444420190
  N   4.84350642355699      0.12725469876882      0.70193291603740
  N   2.89343710501889      0.99617758529838     -0.01845494358744
  C   1.61535595996993      1.12612202435934     -0.32138457026811
  N   1.28991993218598      2.32315018545555     -0.83037435159943
  C   0.51584209892155      0.18807724725485     -0.11821153988353
  H   -3.52081175187127      2.46219332690643      0.52176316470344
  H   -0.92991866412371      2.84298830976249      0.43655033186687
  H   -0.26876362712308     -3.12919649464504     -0.42139917658794
  H   1.88066977370995     -2.95927688915823     -0.43138587505196
  H   4.02402780990379     -2.17229890943426     -0.02251439584016
  H   5.08379319299916      1.06825001628173      0.95741096305094
  H   5.37872849732129     -0.61873570893203      1.10431460171857
  H   0.36214226746581      2.49852028484384     -1.17478527268493
  H   2.02634914157126      2.97860167412319     -1.02132811320691
