32
Coordinates from ORCA-job ./opt_b97-3c_parallel
  N   5.56244047297203      0.81485198141133      0.28271553598454
  C   4.43384610866833      0.53294181823474      0.21892477018762
  C   3.05338293024923      0.26679494671058      0.12232943215945
  C   2.65566077498610     -1.06112464997040      0.17121596593315
  C   1.40398708122399     -1.64831219197742      0.06997248961074
  C   1.39376599731281     -3.06710530753042      0.12439707954060
  N   1.45619215523185     -4.22615500637811      0.17262057207449
  C   0.12700986976697     -1.01079916511387     -0.05729434743884
  N   -0.90187249410354     -1.85230622416929     -0.13877388121952
  C   -2.17375017422390     -1.42999873090738     -0.15284848781294
  N   -3.13832600908844     -2.41393098876342     -0.26953705539922
  C   -2.46873454293011     -0.08994910272604     -0.00620387342171
  C   -3.67666072235850      0.65513502277218      0.15943352946563
  N   -4.91451305794201      0.09898408042448      0.24536015051209
  C   -3.36505501557057      2.02272675842654      0.19696712113320
  C   -1.97420828523977      2.15659054393740      0.08572204487416
  N   -1.23689282838829      3.26944634779358      0.08128691219618
  C   -1.38679047826300      0.83607623143491     -0.02157666468278
  C   -0.05865817928954      0.44443957457587     -0.07497872399125
  N   0.87334677148756      1.43808171274790     -0.15823468852830
  C   2.18337851708517      1.39600589215717     -0.09699324059692
  N   2.79736126783065      2.60393029731563     -0.22340158500699
  H   3.46823296624764     -1.76439359613936      0.29609398760557
  H   -3.88688660071535     -2.20118886398400     -0.91038398958658
  H   -2.72501027063639     -3.31602844134045     -0.45516046350223
  H   -4.95428908530181     -0.84717545853237      0.59040456240358
  H   -5.65574202439158      0.68535069094173      0.58927142009492
  H   -4.07091866601699      2.82894399134576      0.32011836267178
  H   -0.23289990391753      3.12508183733652      0.05712319380006
  H   -1.63489611115355      4.17073466913492      0.27040010925097
  H   3.79096493951809      2.65004819926968     -0.36753594439835
  H   2.24589142715050      3.35699233856156     -0.59122603771299
