31
Coordinates from ORCA-job ./opt_b97-3c_parallel
  N   4.54842149017088     -2.66701012869212      0.17164114062574
  C   3.70933147383906     -1.86595746376875      0.08465879384678
  C   2.75324155138854     -0.82886374375197      0.00304873435763
  C   1.42583408054312     -1.16556088930272     -0.16000588547368
  C   0.26367547224013     -0.38746954745959     -0.14468505789940
  C   0.17468111965523      1.06198547291786     -0.08393170309984
  C   1.33706996561559      1.85258657940012     -0.43722778142772
  N   1.14975573463644      2.99110989219395     -1.12475124266092
  N   2.61574930024404      1.62446444231599     -0.15845595230142
  C   3.24216581340954      0.51409947579026      0.16507202793643
  N   4.49212249312981      0.67363847413110      0.63634176003868
  C   -1.07366809264473      1.67731621429866      0.12013367204442
  N   -1.18860119661519      3.07284092818764      0.22202669259051
  C   -2.27315959764180      0.91925483547527      0.18811877230091
  C   -3.49126400058081      1.57985352919423      0.45145524782160
  N   -4.45317850243067      2.19424911557079      0.67223132065995
  C   -2.22727346117472     -0.46106733707559      0.00743322400523
  N   -3.20012859214808     -1.37781034575237      0.01354803195504
  C   -2.50053646341481     -2.53411427719966     -0.14850306309302
  N   -3.12088097973331     -3.72459748649406     -0.17605207254841
  N   -1.14758338316760     -2.43802775745129     -0.25099172537792
  C   -0.94276067903403     -1.11500293255453     -0.16178681152108
  H   1.22478286676277     -2.22519330479203     -0.25086571318469
  H   0.21811830417047      3.36481323891239     -1.23512706972757
  H   1.94427129413132      3.59175421214718     -1.25582203723310
  H   4.89198017615520      1.59402817503030      0.62492999739247
  H   5.09051745286023     -0.11477203659716      0.80826214273094
  H   -2.12807079326719      3.37110179121897      0.44171791538664
  H   -0.54118008681783      3.48459359530683      0.87724924809037
  H   -2.59882715048880     -4.52850675810077     -0.47115923295064
  H   -4.11882837119385     -3.73586690869965     -0.27783495688323
