26
Coordinates from ORCA-job ./opt_b97-3c_parallel
  N   -6.14305202266299     -0.57580549266898     -0.01252943075951
  C   -5.01168410853180     -0.31286619486616     -0.00955770749055
  C   -3.64143656333970      0.00694655606870     -0.00633702060971
  C   -3.10443414362336      1.31849346312187     -0.00352599425729
  C   -1.71457525797256      1.19507073310714     -0.00090367231141
  C   -0.68361377107982      2.12592158216865      0.00231914984864
  N   0.59366671968980      1.78926681600588      0.00438807144939
  C   0.95630751018643      0.48311631953052      0.00340685285942
  C   2.34972466447216      0.32017620083280      0.00596343766637
  C   3.09382607549207      1.53054139180546      0.00901662569253
  N   3.87047742948893      2.39551660644790      0.01174571752987
  C   3.15819364388164     -0.87423742686836      0.00607396851628
  N   4.49414348833029     -0.71730252080057      0.00904195618926
  N   2.77603745021880     -2.14965514441305      0.00361572959166
  C   1.53173660479260     -2.59628313955113      0.00052876135932
  C   0.30119431205676     -1.96576211124669     -0.00107349945091
  C   -0.03243593176135     -0.60930530803146      0.00004015931687
  C   -1.37756438279317     -0.20714760250093     -0.00207464499562
  C   -2.59014432066785     -0.92520418626789     -0.00544740535234
  H   -3.67798950922900      2.23053856739446     -0.00346760344460
  H   -0.89180194743456      3.19097831195946      0.00330417624146
  H   4.93620410483372      0.18447680073615      0.01105171986487
  H   5.05530064961451     -1.54955278960870      0.00902275648133
  H   1.48191655533808     -3.68122666803499     -0.00101369732988
  H   -0.53718342585225     -2.64921657382312     -0.00362587532495
  H   -2.72602388614736     -1.99379917569701     -0.00711885568048
