29
Coordinates from ORCA-job ./opt_b97-3c_parallel
  N   4.73247290946984      2.64111152916823     -0.15224934088435
  C   3.89473901153072      1.83636641173518     -0.13909298347538
  C   2.93795803802997      0.79305051584611     -0.08638292979539
  C   1.61959837051517      1.10478395981079     -0.27185963792101
  C   0.45979409375383      0.30265774331340     -0.17286606464057
  C   0.41109279172172     -1.12552161299275     -0.08315868216293
  C   -0.81901135783265     -1.76739464482543      0.09608040669574
  C   -2.02997202482690     -1.07622750162460      0.17085811569981
  C   -3.21486050756349     -1.82109754397096      0.39791087746515
  N   -4.15603404650901     -2.47416121195218      0.58117251791563
  C   -2.03123056568401      0.31327717632215      0.01517145647965
  C   -2.99861537699713      1.33361640812623      0.00682717626647
  C   -4.38968524586199      1.23073397580479      0.13724332786645
  N   -5.54641057714337      1.17976141669220      0.24012541817305
  C   -2.26027832962551      2.52999876207462     -0.17443644995134
  N   -0.93750474839463      2.33314967070173     -0.26969234555026
  C   -0.76513771472744      0.99503153681540     -0.16247873934551
  C   1.58660058428357     -1.93816497104859     -0.28652161576997
  N   1.41058392902370     -3.17883383457882     -0.77686952731406
  N   2.84436912376062     -1.66985815935894      0.03136881549806
  C   3.44112031762819     -0.52359001926952      0.25788361862977
  N   4.66570128111201     -0.59404352015093      0.79937124561564
  H   1.39695742211949      2.14931939277254     -0.45128385506528
  H   -0.84827809924315     -2.83631666109374      0.24119453945257
  H   -2.68168152350290      3.52182972721099     -0.23867294016629
  H   2.22096100805519     -3.76040465657311     -0.89616086150080
  H   0.55974223830134     -3.44209908435490     -1.23659820790594
  H   5.22929487400435      0.22499182271772      0.94414047281037
  H   5.06735554780084     -1.49830780431637      0.97024414008020
