27
Coordinates from ORCA-job ./opt_b97-3c_parallel
  N   4.78123516159152      0.57380279232643      0.31850124691644
  C   3.65204973735704      0.84119800197917      0.23759761253248
  C   2.30560224084721      1.21372149231397      0.14824046669823
  C   1.83582540118903      2.57230274455628      0.11963622144460
  C   0.46750858441159      2.58822091879420      0.01877920228932
  C   0.01116817245921      1.23485782095430     -0.01173081766470
  C   1.18473283845111      0.38237670777250      0.07400574298143
  C   1.03387939219012     -1.00850579607977     -0.04650707114292
  C   2.14979680451448     -1.87379412760188     -0.13296664793388
  N   2.99141434620804     -2.66887006436378     -0.22182084726398
  C   -0.24107148178207     -1.58763136818645     -0.11849899231129
  N   -0.38335883421288     -2.95947094141816     -0.19247676637281
  C   -1.41029874174400     -0.76125022874405     -0.02288932417725
  C   -2.62488566535902     -1.38524144886014      0.23270594436762
  C   -3.90594439766959     -0.85282783565980      0.37514832560212
  C   -4.31659083773750      0.44483122178947      0.17117336647671
  N   -3.63012379367115      1.48203521809518     -0.32873473925795
  C   -2.33717609775610      1.55930412768586     -0.47845268834757
  C   -1.25597726812663      0.69013033210260     -0.11908648644836
  H   2.48309471107075      3.43170324369070      0.18666794324875
  H   -0.15029905304562      3.47027376307501      0.03228777921308
  H   -1.06170940289836     -3.29260411198982     -0.85693312858523
  H   0.48194807529147     -3.47175205589489     -0.26474145835310
  H   -2.55831365422421     -2.44535322069031      0.43766695176808
  H   -4.67447999399836     -1.54633041995029      0.69357375479096
  H   -5.35320893124464      0.67597867589651      0.39233591741871
  H   -2.01115976671199      2.47957616530737     -0.95435617558965
