29
Coordinates from ORCA-job ./opt_b97-3c_parallel
  N   -4.02587450390071     -2.26099556606019     -0.24926900774398
  C   -2.90937089417315     -1.49630068723790     -0.09484054759958
  C   -3.06399131577976     -0.14760690602197      0.16977691194885
  C   -2.13157439202505      0.90749062736975      0.20050167096445
  N   -2.68639795845530      2.10885488481016      0.50272238401305
  C   -0.72738906574183      0.83117552680367     -0.06132227556635
  C   0.08113602334871      1.99995191630720     -0.17487087134630
  N   -0.49368533132528      3.28808471485358     -0.32083921766405
  N   1.40757820108589      2.02889259931976     -0.13827233354643
  C   2.06174004060279      0.87031530688813     -0.01931724731259
  C   3.41409517745265      0.57853434384368      0.05694480200066
  C   3.46765647699904     -0.83628381059484      0.07193868644002
  N   4.58808527791649     -1.60692776572307      0.08920250910368
  N   2.25100689578306     -1.43721760016308      0.01336374367123
  C   1.37001306534672     -0.41852075972993     -0.03237836855173
  C   -0.02964298508207     -0.44984035422758     -0.07243793887769
  C   -0.57569229186064     -1.75515996199677     -0.14972130214396
  N   -1.78288390784950     -2.24419365867468     -0.21615038534728
  H   -3.88382095087141     -3.25466880292478     -0.21124048786584
  H   -4.92782186729697     -1.91011803931959      0.01364590366390
  H   -4.09137556897386      0.16676116286688      0.32242268110436
  H   -3.61540281059962      2.12941917259478      0.87886375139542
  H   -2.07899725683302      2.90542381162699      0.65564156570130
  H   -1.08988734660824      3.35556126809906     -1.13574968360127
  H   0.26886666778699      3.94592747350285     -0.41114069556559
  H   4.24007275776628      1.26986859174396      0.06454576816694
  H   4.43746094440492     -2.57449845468102      0.31955299438882
  H   5.42777709562511     -1.20253578019279      0.46255896874999
  H   0.19733497165776     -2.51606160068223     -0.17962063988003
