33
Coordinates from ORCA-job ./opt_b97-3c_parallel
  N   -6.02166337767823     -0.02390249174515     -1.40428832122615
  C   -4.91976091988896     -0.16653186171078     -1.06508581178787
  C   -3.58877956783524     -0.35373250766366     -0.65247193189746
  C   -3.02793924593880     -1.58816754619501     -0.24147488435450
  C   -1.68005131809559     -1.36860450463709      0.02695763259762
  C   -0.67767265857674     -2.22737918076433      0.50792496590966
  N   -0.93736820862845     -3.47944976817772      0.89699110629846
  C   0.66061006039926     -1.73801317505676      0.53135221531850
  C   1.64041766376602     -2.62976421221082      1.00464450203912
  N   2.33029757291318     -3.43556459417041      1.48335682568381
  C   0.98385799731039     -0.42554591653009      0.12201076799403
  C   2.28385254767186     -0.14725924718841     -0.34198901957210
  C   3.08241637318426     -1.21607967431859     -0.80435328303006
  N   3.79479157905614     -1.99645585416064     -1.29164648306348
  C   2.87483314634256      1.14676338449760     -0.52972750410651
  N   3.98039153207577      1.23691900378998     -1.29099628208564
  N   2.51112424228510      2.28063916334441      0.04463496582637
  C   1.34108511149150      2.59013235238790      0.56573574911158
  N   1.33838134611240      3.71348556770275      1.30765398278976
  C   0.08099352599645      1.92048280895060      0.35045381953358
  C   -1.03768385548549      2.73685604710376      0.62191551858079
  N   -1.86712386649352      3.50226056029827      0.90480842590785
  C   -0.11103533123996      0.56314174330419      0.05245616967980
  C   -1.39289386546237      0.02732820497999     -0.19077491195559
  C   -2.59654444101964      0.63558742090172     -0.60476668854495
  H   -3.57487268787649     -2.51534603636732     -0.17939712347228
  H   -1.87598908579559     -3.83031036427708      0.91076473943251
  H   -0.20119851545759     -4.08723905095274      1.21484743620934
  H   4.42887010367295      0.42014908616877     -1.66689882347986
  H   4.48168139298254      2.10639013546461     -1.28675378155322
  H   2.17357180321498      4.27023093936623      1.31490375877514
  H   0.48386422787812      4.12259384776033      1.64122276329537
  H   -2.74593902308314      1.65908238200436     -0.89514445845199
