24
Coordinates from ORCA-job ./opt_b97-3c_parallel
  N   -3.68025392585124     -1.41878205815598      0.64562801493889
  C   -2.61931286391583     -0.72062850408601      0.18185979410336
  N   -2.83691379526498      0.57870501301589      0.01547798357931
  C   -1.85279124892683      1.45363448397024     -0.20953000832951
  N   -2.27852870072994      2.67432332900129     -0.60645374617606
  N   -0.52657884419254      1.37799129455158     -0.05449680282579
  C   0.20927762540474      0.27768445367118      0.01321793803764
  C   -0.29794444678212     -1.12261796181971     -0.20424593993703
  C   0.63958685440159     -2.14713500739227     -0.47769396483538
  C   1.99580937395586     -1.95424555166569     -0.36348448611076
  C   2.48644331464584     -0.70156119869513      0.00976940664676
  C   3.76861809875711     -0.17134379006975      0.19695862213421
  N   3.72751140184776      1.15782085356509      0.49973736216035
  C   2.43248304138748      1.50189665389100      0.49365850813233
  C   1.59052222697018      0.39384167214122      0.20843367535960
  N   -1.55852041815933     -1.50401696967764     -0.09200991618050
  H   -4.56575082135395     -0.95464752741574      0.72558300479827
  H   -3.64630781258824     -2.42000981900806      0.60421407368161
  H   -3.26074846434214      2.87490497101851     -0.58336838064980
  H   -1.61775522775322      3.42854760070657     -0.61346415040718
  H   0.23129301350126     -3.12358751950206     -0.69354449526362
  H   2.67302477269419     -2.78103577377429     -0.54066300435356
  H   4.71457077895852     -0.68732292234487      0.11780781485460
  H   2.12249034603582      2.51442900927463      0.70245955294227
