28
Coordinates from ORCA-job ./opt_b97-3c_parallel
  N   -4.96011621072200     -1.31288920304130     -0.60056268532413
  C   -4.00065351980810     -0.67837542474555     -0.43242071085116
  C   -2.81089091633346      0.05725921645968     -0.21019845261402
  C   -2.93591825201816      1.43639558470270     -0.28442612556502
  C   -2.02482782953906      2.42900010418119     -0.02034175369271
  C   -0.66129643154780      2.31740585044887      0.23222773010101
  N   -0.02947851259696      3.46437585288550      0.59079359817321
  C   0.16295385213838      1.13914480323773      0.05640827258956
  C   1.53072027816720      1.40390088398745     -0.15090517932105
  C   2.51804303634006      0.42826479320199     -0.18641574470544
  C   3.86201475331566      0.79358764108967     -0.44824039449125
  N   4.95047844841857      1.13432599890545     -0.65852185327063
  C   2.13389110817922     -0.89190135464537      0.04503381275767
  N   2.86335601265630     -2.02414490214227      0.09705506499892
  C   1.93288675266521     -2.96805506284666      0.30489760556340
  N   0.65260297507316     -2.54777294893704      0.38656748413785
  C   0.73983348153767     -1.19681548566814      0.22204935438372
  C   -0.28468144304951     -0.22739657625840      0.16563504677078
  C   -1.66000292275400     -0.70795849361182      0.15621645618586
  N   -1.84867120631641     -1.99562811979290      0.41709046647629
  H   -3.93457319338748      1.78246105389618     -0.51766285638486
  H   -2.42993618601019      3.43305379858411      0.01300959897387
  H   0.85421216411704      3.42386638989927      1.06285030940864
  H   -0.58179542195832      4.28220984980337      0.77368006486428
  H   1.83785248803118      2.41467730309502     -0.36321249631815
  H   2.18803070896807     -4.01157614897328      0.41016459899903
  H   -2.76810422927465     -2.39597610088751      0.32114252071745
  H   -1.01097193219116     -2.60572450742806      0.51343003643692
