27
Coordinates from ORCA-job ./opt_b97-3c_parallel
  N   5.62270029370743      0.52519452928403      1.19641909264490
  C   4.56409914468433      0.17910261227344      0.86615713947228
  C   3.28644913182599     -0.25107158450246      0.46512302399205
  C   2.99068318016263     -1.50612874316533     -0.12303063177713
  C   1.61316095413753     -1.55588893343494     -0.33347067816492
  C   0.79441096881496     -2.49867897308444     -0.95483830474644
  N   -0.52017506263679     -2.41077099921993     -0.97227159732276
  C   -1.11338443542432     -1.33276289030623     -0.40632405137148
  N   -2.36822438308296     -1.50831478385613     -0.07414997337187
  C   -3.22682060695102     -0.58609010332936      0.37420194789083
  N   -4.18095522660554     -1.05853255588029      1.19684076707871
  N   -3.35192119948872      0.68874281107476      0.01193529853782
  C   -2.33831264956247      1.45383427686696     -0.35350863914048
  N   -2.68411223274181      2.64885615212724     -0.86460224806235
  C   -0.93022014803450      1.17611457690918     -0.17970135741064
  C   -0.11143131395984      2.32295279245012     -0.20419564691475
  N   0.47909923895927      3.32450719651705     -0.25318585102177
  C   -0.33392202367455     -0.09205969429588     -0.09918853315817
  C   1.03786748205575     -0.30915893392031      0.10426405088099
  C   2.09938017680625      0.49004055918619      0.58609808159912
  H   3.71161007814484     -2.27061231525568     -0.36283440186479
  H   1.22266522917187     -3.37226395964220     -1.43697969623958
  H   -4.27071096830571     -2.05228795454957      1.30563539003590
  H   -4.95795037167909     -0.46751844992568      1.42901534194746
  H   -2.00017827153816      3.35853831325336     -1.05731328314261
  H   -3.65304493272742      2.90897665867484     -0.83287510140422
  H   2.03913867734209      1.47778817345122      1.00616190333388
