33
Coordinates from ORCA-job ./opt_b97-3c_parallel
  N   -5.56039279418934      0.21802031406804      0.92751420200063
  C   -4.48161370048028     -0.11162479905529      0.63962639714026
  C   -3.16122048722610     -0.43234898374756      0.30889178209305
  C   -2.64510246593472     -1.68804305564747     -0.04572386419766
  C   -1.27445952243586     -1.56312352384698     -0.25499593093775
  C   -0.29721635470244     -2.53148563190415     -0.51846327743125
  N   -0.61313017194486     -3.81046821548097     -0.84965540560794
  C   1.04150652638147     -2.14796921184619     -0.41214519231341
  C   1.45190917608648     -0.85577262100485     -0.10590856179964
  C   2.83101595819004     -0.65577704485723      0.22660413679684
  C   3.65609009315284     -1.80928886803536      0.25088944608312
  N   4.34322199697052     -2.74706906797395      0.26645734200557
  C   3.47926745284991      0.50081299469458      0.65536131445633
  C   3.07504919647713      1.81341504904732      0.67577033849731
  C   1.90943149708370      2.35139667278011      0.12573305743730
  N   1.84836229168185      3.70830672130195      0.03413524925273
  C   0.78200454269303      1.60150819472434     -0.31820282853854
  C   -0.13152764672388      2.35058658655162     -1.07155249784242
  N   -0.86055278987626      3.04322738155329     -1.66561956138909
  C   0.45159536895161      0.21924843301875     -0.10142786457242
  C   -0.88570100342281     -0.18567165543151     -0.05418513794763
  C   -2.10451797614035      0.52013222443137      0.29824879940688
  N   -2.27783418850272      1.79066470796632      0.71341784767127
  H   -3.24026379170548     -2.58459200168085     -0.11705846584901
  H   0.09748878122798     -4.51580283372994     -0.77297164305278
  H   -1.55233303123102     -4.13472389457201     -0.71255812635437
  H   1.79710965294758     -2.91241923159609     -0.52096571898828
  H   4.48847350239433      0.33542764306561      1.01068000758819
  H   3.79205221965785      2.52693370388256      1.06111956309894
  H   1.10877309616604      4.14064750180510     -0.49222363412594
  H   2.70509266714916      4.22813911733124      0.08335778325754
  H   -1.76739230196180      2.53401504516646      0.26486639047715
  H   -3.22596724768342      2.04280334972114      0.94895704168506
