27
Coordinates from ORCA-job ./opt_b97-3c_parallel
  N   5.60378201468473      0.45482823202121     -0.03563151784960
  C   4.46273862017657      0.22999884784746     -0.02484241815498
  C   3.07361413502142     -0.03613620632275     -0.01188872829617
  C   2.66203165918928     -1.38199210508641      0.01423747437980
  C   1.39748117887352     -1.89661539091193      0.03254127918091
  C   0.13345067533735     -1.24638567776171      0.02814112677667
  N   -0.90407132141801     -2.07776333713774      0.04816438185641
  C   -2.17965652749611     -1.62649783122212      0.04040641392682
  N   -3.12474216349309     -2.60142456639848      0.10981897065970
  C   -2.46746434171773     -0.26953648150985      0.00622996199594
  C   -3.64805108563214      0.50182171172456      0.00553740806619
  C   -3.31321042701358      1.85370287627664     -0.02734863427442
  C   -1.90630053992838      1.96947077599682     -0.04765331867307
  N   -1.15344507000898      3.07504048386189     -0.08970608197057
  C   -1.35618860858171      0.63969301021917     -0.02634962226341
  C   -0.04005470126054      0.21842906976404     -0.00865170877033
  N   0.91680081463241      1.19226577411545     -0.02485172796482
  C   2.22235494273878      1.08235653526982     -0.02328929183996
  H   3.46400857760931     -2.10929248323685      0.02237072998718
  H   1.31226883487760     -2.97423466511368      0.05453362255824
  H   -2.80098417675370     -3.53436498097223     -0.07810227021123
  H   -4.06376405691937     -2.38974606985960     -0.17282489001761
  H   -4.65851998953850      0.12272171833451      0.03869667076875
  H   -4.00802844890962      2.67867398527585     -0.03531021189654
  H   -1.55589947840901      3.99227756378296     -0.03886309422113
  H   -0.15014483624623      2.93293034886762     -0.05420762167655
  H   2.73677115848578      2.03972497147536     -0.03592858147624
