26
Coordinates from ORCA-job ./opt_b97-3c_parallel
  N   4.41494608589103      1.09027072193454      0.05749511614105
  C   3.25356016782014      0.36089505928167     -0.00700404466790
  C   3.38948450365619     -1.03742883061438     -0.11960535089905
  C   2.35360681213873     -1.94636860531818     -0.13494105529585
  C   0.98816810723044     -1.74182566183738     -0.07763759120081
  C   0.25144872680096     -0.54792642069924     -0.01293890211311
  C   0.86160008693214      0.79514781884271     -0.05417228321486
  C   0.00749191920091      1.91707971865612     -0.11868855726395
  C   -1.37109897144580      1.82826782642792     -0.09989289389507
  C   -1.97146583479518      0.58755331096527     -0.00843268770546
  C   -3.30667122587215      0.12137401430220      0.05393532095273
  N   -4.45809717746715      0.84304225063284      0.07844726878354
  N   -3.35499705620400     -1.23533111162754      0.15568430420399
  C   -2.08308964099528     -1.65987535554175      0.15184984092554
  C   -1.15460277592814     -0.59556017307967      0.04941008719492
  N   2.16521727024232      1.11474211116272     -0.00511022807715
  H   4.29436667015753      2.05418162565208      0.31641296188451
  H   5.24867704743054      0.64303236649497      0.39321711452120
  H   4.39680624058165     -1.42939953089949     -0.18623574341720
  H   2.65523248186973     -2.98565353577991     -0.20443102527193
  H   0.39344455124940     -2.64511068649537     -0.10267255977607
  H   0.49341429353287      2.88007566133477     -0.16238743921773
  H   -1.95763354855916      2.73955888977484     -0.14080317248979
  H   -5.29579202426109      0.31366578783107     -0.09609106013192
  H   -4.44753904104952      1.76541996235187     -0.31859102827400
  H   -1.87494614645711     -2.71686241205266      0.22932449790437
