28
Coordinates from ORCA-job ./opt_b97-3c_parallel
  N   0.07564499614572     -3.66943357545405      0.73994170705091
  C   -0.37361690214800     -2.62494231992967      0.49101032203909
  C   -1.01163153718772     -1.39360401249484      0.21010965971282
  C   -2.40600930167855     -1.51912172953769      0.18654752951257
  C   -3.39190146035649     -0.58839843934128     -0.00759783839229
  C   -3.19435364602814      0.79594736495874     -0.17506037717773
  N   -4.27930054578712      1.54632437658232     -0.53206364022012
  N   -2.09099803685994      1.50655745491008     -0.01171566684729
  C   -0.81000236448447      1.14078655493598      0.13028021988161
  C   0.05261510423821      2.23441840653368      0.35081250055365
  C   1.42612360561884      2.12597922594658      0.32388485943261
  C   2.00411023875665      0.90047900306186      0.05964902168240
  C   3.35349996751511      0.50418851741272     -0.10277754386489
  N   4.44790126392754      1.30663397036717     -0.04869437026459
  C   3.36690166612208     -0.88583609798869     -0.40662230495498
  C   2.07307398024479     -1.35340893754218     -0.40317990992614
  C   1.17530550266332     -0.26962647642037     -0.11096637771814
  C   -0.21322174485958     -0.21310816391539      0.03422658356386
  H   -2.75885524766164     -2.53132300152965      0.33976997124290
  H   -4.41086364088614     -0.95325704671238     -0.03837657473642
  H   -5.20159483221060      1.16195137255803     -0.44141993458385
  H   -4.18542113794218      2.53978556243693     -0.41557096203751
  H   -0.42262336585000      3.19557995646865      0.47361127910607
  H   2.02771704590143      3.01707294998418      0.46759993581954
  H   4.36302421379573      2.20000190998358      0.40264690324258
  H   5.34478502570071      0.86913619833737      0.06625968748996
  H   4.25094487864504     -1.47049147179965     -0.60950979712283
  H   1.79612795894356     -2.36919826288825     -0.61662210279263
