25
Coordinates from ORCA-job ./opt_b97-3c_parallel
  N   -3.38273230180006     -2.08695904885247      0.32901351748572
  C   -2.68474492370419     -0.95573739704088      0.05258270135109
  N   -3.51360221914758      0.08996873124921     -0.23445173609190
  C   -3.09149312895110      1.33293976114831     -0.25030465464227
  C   -1.84284443999319      1.91206102208177     -0.02285707809313
  C   -0.59278908781915      1.30818752079002      0.10944184088559
  N   0.44687074750101      2.16794737883995      0.23699270438003
  C   1.69087971484221      1.70067520880801      0.20538033031054
  C   1.99203428287548      0.36769033680599      0.02475262858470
  C   3.20750243737787     -0.36744063780771     -0.03318367686267
  N   4.46801074283820      0.14315271947535     -0.03901825388889
  C   2.87320569407184     -1.74328043546038     -0.14855983313084
  C   1.49517110545992     -1.87109206089903     -0.15011690997785
  C   0.91297306861291     -0.58068745123118     -0.05166490536434
  C   -0.41012931737402     -0.15948486908312      0.03383161299064
  N   -1.37513454404043     -1.09551849087044      0.07632585237481
  H   -4.36385119188789     -2.09371613220506      0.12081705173500
  H   -2.88087284597721     -2.95449230480688      0.36760254227653
  H   -3.88164364139293      2.04679538946691     -0.47414793201299
  H   -1.81452092065276      2.99341505232168     -0.02491067523443
  H   2.46884397205844      2.45144487372369      0.32429317314064
  H   4.60084554132745      1.08517350215224      0.28312749704300
  H   5.22549516105095     -0.47844066195171      0.18247229711951
  H   3.58789657390375     -2.54898240230688     -0.22262229937211
  H   0.94287627702039     -2.79423240654725     -0.21297232270635
