26
Coordinates from ORCA-job ./opt_b97-3c_parallel
  N   -4.49654967345600     -0.59590030466727      0.17071482658321
  C   -3.23470699868857     -0.10877460700479      0.03442520481327
  N   -3.00119398121589      1.20256024562480     -0.17672137804661
  C   -1.65190815925717      1.27172821810862     -0.18113100170556
  C   -0.79809343020817      2.35161541384166     -0.34682036356795
  C   0.56603165316516      2.13304458885282     -0.25911022468686
  C   1.12982774271763      0.85987631246849     -0.07392091384779
  C   2.54765827011652      0.77847759276056      0.16684962781600
  N   3.16153990112233      1.85844163852786      0.69802967802710
  N   3.37995289654914     -0.20354739620299     -0.15450849667140
  C   3.03417457173094     -1.43446165650852     -0.48592242480798
  N   1.94835088706922     -2.14346103517615     -0.28133601940770
  C   0.75146340586623     -1.65881661079606      0.09573151299896
  N   -0.11968427619154     -2.59063231772051      0.47796472199138
  C   0.27403904804929     -0.29428154313862      0.01330778433430
  C   -1.10651922265125     -0.04979611742962      0.02188778964472
  N   -2.14759156923849     -0.91232851051564      0.16490671698143
  H   -4.61090744454853     -1.57924389668667      0.00108853454885
  H   -5.22204525117047     -0.00734426398871     -0.19914733603620
  H   -1.18993675358555      3.34289302430301     -0.52943887444608
  H   1.23070961322785      2.97454029305874     -0.39314867099112
  H   4.15106180898928      1.78808480618683      0.85823709601622
  H   2.64030397819024      2.54673487201932      1.20652163130887
  H   3.84254257150652     -2.00091820681407     -0.94113060692940
  H   -1.11353440691821     -2.33413224315514      0.54165874792291
  H   0.16845482192378     -3.54770918674941      0.36418530595774
