32
Coordinates from ORCA-job ./opt_b97-3c_parallel
  N   3.85243206097485      2.44675760252269     -0.77312700898724
  C   3.06044291925279      1.63427528997313     -0.50659500046277
  C   2.13668158584854      0.62415844447419     -0.17829331944320
  C   2.65334197502165     -0.68629134968197     -0.14681408002242
  N   3.95150627010155     -0.86941581078160     -0.52113806934695
  C   1.96403851993876     -1.81519863774348      0.29652993527356
  C   0.60917851956087     -2.01470593577511      0.46885558470907
  N   0.24730891881585     -3.15833829480446      1.11722091930073
  C   -0.47431730161886     -1.13151061075954      0.04960304164830
  C   -1.71827050756705     -1.71467581393982     -0.32053452369662
  N   -1.80952730615812     -3.11445232142364     -0.57814134022064
  C   -2.87882607311260     -0.96686317497651     -0.41702148018443
  C   -2.86493949466795      0.38343660704777     -0.12421751135077
  C   -3.83165191643739      1.40520885883459     -0.10660881629406
  C   -3.13484314514467      2.56526769018825      0.19904361431425
  N   -1.80287885329070      2.35309416944583      0.37139871164220
  C   -1.60477007906989      1.02042685610693      0.17971825275585
  C   -0.38954743861661      0.29629496781616      0.18969866309434
  C   0.84437622313024      1.06722755160025      0.24088127243144
  N   0.72911916259162      2.35290457299094      0.56615003490277
  H   4.56951022903421     -0.07859833446915     -0.58153069569320
  H   4.38699303074904     -1.75174995763448     -0.32901127791842
  H   2.59254575184836     -2.66353566435353      0.54606627044530
  H   0.95778581323477     -3.85787228488317      1.24705627462996
  H   -0.68149722958559     -3.51603367973924      0.92092188090439
  H   -1.16342404112055     -3.41026533368088     -1.29811585094375
  H   -2.74214298601986     -3.36069190449488     -0.87315484828770
  H   -3.79651423975500     -1.45294815665993     -0.73117143732576
  H   -4.88894287880555      1.30799384387179     -0.29057871831156
  H   -3.53756588232708      3.56071844734493      0.31583386268831
  H   -0.23976327051597      2.75159704101179      0.60712992243100
  H   1.52850017311071      2.95849489397227      0.47675563631772
