31
Coordinates from ORCA-job ./opt_b97-3c_parallel
  N   5.26642436159859     -1.11146143328270      1.10408525512501
  C   4.24589648474051     -0.65743557312218      0.77033568127086
  C   3.02958968898719     -0.10743146125177      0.37208904826362
  C   2.84293258718808      1.20266868372372     -0.13328876895413
  N   3.83098169208025      2.07925700255207     -0.36214945508589
  C   1.45720055701070      1.38724014568872     -0.37296648255916
  C   0.73418856534837      2.44744930086379     -0.87943478726933
  N   -0.58933635705428      2.48349123427776     -0.84366353973109
  C   -1.27029868707051      1.43833462213334     -0.32956802565847
  N   -2.49322071344740      1.72142841960251      0.08625435996476
  C   -3.41022573248450      0.88217513199573      0.56285852931181
  N   -4.30722480778649      1.46618965858727      1.39321954032763
  N   -3.66764013304696     -0.40271634912524      0.30353486414397
  C   -2.79029460052632     -1.24509113658886     -0.22069603269586
  N   -3.33130683932057     -2.42195697198457     -0.60331010574144
  C   -1.37303791449489     -1.08390483088280     -0.36955136675844
  C   -0.69709000259642     -2.20859595507292     -0.84599522426510
  N   -0.15320172704222     -3.17521504667757     -1.21670328643676
  C   -0.62205570159129      0.11900811535260     -0.19098074462143
  C   0.76256669633817      0.17222623417183     -0.03667749313298
  C   1.76884785511354     -0.76044960596122      0.42322271492900
  N   1.60757101670043     -1.97975545166813      0.95180596696244
  H   3.62510729589567      3.03671081159265     -0.57557124649761
  H   4.76532137293987      1.87182800701418     -0.05667553978161
  H   1.21964445597787      3.31726905554934     -1.31365861910306
  H   -5.14415382989724      0.96000207444940      1.61697524644249
  H   -4.32081332843935      2.46878802523486      1.43044198191381
  H   -4.30091855531022     -2.57296941098577     -0.39634167856522
  H   -2.77215651116002     -3.19022626189369     -0.92570595797072
  H   2.44515829804959     -2.48818998241598      1.18755132762745
  H   0.84247625070045     -2.56004902917685      0.64549134794504
