33
Coordinates from ORCA-job ./opt_b97-3c_parallel
  N   -3.71869662467003      3.25379818473278      0.12767403359047
  C   -2.79915141993063      2.54258653976963      0.08644359246611
  C   -1.66302523862701      1.70924041906788      0.04220375038409
  C   -0.39082019964472      2.27312531211490      0.17750870113928
  N   -0.24654781315083      3.64641800075516      0.26043964183991
  C   0.77031409603890      1.43409248829330      0.13798059683043
  C   1.99814042837782      2.04608975715940     -0.14927381755669
  C   3.24018342564507      1.51659147936046     -0.40179977595698
  C   3.61758377275224      0.16620929252552     -0.28765581633861
  N   4.83557219047869     -0.20245670603734     -0.76449957457516
  N   2.96709268398351     -0.80354323102309      0.34647235625452
  C   1.70199623499053     -0.83042581247240      0.69924072253547
  N   1.38601060417818     -1.75758271923865      1.61533572659889
  C   0.59135912967452      0.00158129364495      0.22310711509741
  C   -0.65665000644336     -0.55047853277883      0.01401532837647
  C   -1.14587553665388     -1.89857514638301     -0.09995166781031
  C   -0.43447455795276     -3.08664460240663     -0.21893880679286
  N   0.12466328193709     -4.10930823147836     -0.30308985649391
  C   -2.54644600834134     -1.81523438353184     -0.31758430401508
  N   -3.36565414253997     -2.88606459945071     -0.46870769283724
  C   -2.94894097227295     -0.45977730762410     -0.31348130114781
  C   -1.81814170087333      0.31664429739285     -0.13083816331905
  H   0.40498163647245      3.97056219567301      0.95502219153262
  H   -1.11438072889100      4.15704876727981      0.30487322062034
  H   1.93748651822619      3.11267416276099     -0.31922130400393
  H   4.00021159007170      2.20144703964626     -0.75613838785081
  H   5.04437654159699     -1.18512435082593     -0.77172250269021
  H   5.29983077214640      0.37200348285287     -1.44265314884995
  H   2.05275687118808     -2.48938040886428      1.79189382498380
  H   0.42127121340769     -1.95616717228395      1.81106939755629
  H   -4.25250245788141     -2.73826599677666     -0.91581214195616
  H   -2.93650557595812     -3.77474351245865     -0.66568467392879
  H   -3.96121370313456     -0.10180202159532     -0.41133208758225
