26
Coordinates from ORCA-job ./opt_b97-3c_parallel
  N   -1.72883613547328      3.05891037373889     -0.57452697892382
  C   -1.52928770279469      1.93705890577062     -0.33940746340680
  C   -1.44815836590688      0.54804115703355     -0.09440612471887
  C   -2.74054383277029     -0.07857748135956     -0.07787444371963
  N   -3.81419045322710      0.66581522930938     -0.41784679495036
  N   -3.07572417937469     -1.32171484574633      0.28091938878513
  C   -2.23834635145125     -2.32709591686605      0.43016040093716
  C   -0.87506771280933     -2.44629808053741      0.22904059916810
  C   0.10650944150198     -1.47436261092799      0.00924873718062
  N   1.33308417120987     -1.97808867362899     -0.17879480998328
  C   2.40526037596357     -1.18100195156237     -0.20281775097069
  N   3.57885866255355     -1.78624014373387     -0.45493576143360
  C   2.30169972541336      0.19330913145370      0.06830401101752
  C   3.20810287978211      1.22636719110444      0.26843802443383
  N   2.56862496861703      2.40135978817830      0.52750100056772
  C   1.25749503601175      2.15129806803241      0.47401245576905
  C   0.99316470418322      0.77621212048873      0.19823445312112
  C   -0.15730937482788     -0.01431772732457      0.06510443052396
  H   -4.71497182814978      0.24640783007464     -0.27763924356181
  H   -3.75344141679299      1.65036660727326     -0.60419335779624
  H   -2.73497621728018     -3.24624821098938      0.72933626976765
  H   -0.47826283174363     -3.44978393185070      0.29951302001377
  H   4.41432495679918     -1.25688240982338     -0.61447738516254
  H   3.56905307875250     -2.76240912601656     -0.69093327855627
  H   4.28787832240563      1.18755068995883      0.26109522375175
  H   0.55124926280808      2.94054994484994      0.66070007724658
