34
Coordinates from ORCA-job ./opt_b97-3c_parallel
  N   -3.36151364265324     -3.23146037183184      0.43903408925649
  C   -2.56744836572012     -2.39872266008884      0.26576388969194
  C   -1.58683762359688     -1.40506565623787      0.05630655938971
  C   -0.23884717697600     -1.78313155689962     -0.04465460178714
  N   0.07434241770568     -3.17157394341376      0.03278770329524
  C   0.77935349400393     -0.81607566899228     -0.20593123182314
  C   2.14873300139530     -1.25208119748794     -0.45366390175124
  N   2.32683201272083     -2.41385350283254     -1.13378843048545
  C   3.29985854020633     -0.60863678190583     -0.01583313753152
  C   3.40872518850635      0.70798936595879      0.44030521421552
  N   4.54587818624051      1.06619948748684      1.11502491187769
  N   2.60423219805028      1.71594397123827      0.14417252173572
  C   1.40100254002755      1.63046629705794     -0.39361183092036
  N   1.03325318923343      2.70213730126680     -1.11198122001397
  C   0.41244654473710      0.58184211745650     -0.20473396156936
  C   -0.93331307103709      0.96715212151832     -0.09481304344259
  C   -1.60175619153618      2.21003213637005     -0.01329905411980
  C   -2.97591319495670      1.94966422177446      0.13467188186529
  N   -3.96180690629020      2.90874123427307      0.21381028589022
  C   -3.20787797197981      0.55585299757578      0.12874949766940
  C   -1.97255363120377     -0.06006616102740      0.01238829383930
  H   -0.76638999646011     -3.73104610769479      0.07339980457030
  H   0.62181408131064     -3.38170081014727      0.85806797633635
  H   3.24915873436214     -2.81349845637210     -1.14282443499848
  H   1.54775320507259     -3.06703820623850     -1.13333900502497
  H   4.22551330304389     -1.16890364274708     -0.07889954178396
  H   4.54303034167627      1.99599320101330      1.49735417606543
  H   4.99627240939539      0.36666345332031      1.67635553746389
  H   0.10869706012394      2.76418573020628     -1.50059447640669
  H   1.65674259444968      3.48686311753536     -1.16473545622798
  H   -1.16610842911014      3.19309442478940      0.05713325258401
  H   -3.66441875868358      3.80797540687314      0.55359873907676
  H   -4.81775105162249      2.60628573015397      0.64773483737760
  H   -4.16392670983545      0.06525112564902      0.22022853378584
