30
Coordinates from ORCA-job ./opt_b97-3c_parallel
  N   4.51836792569476      2.47604630630174      0.09580673764269
  C   3.59681265980798      1.76604689895676      0.05262200361568
  C   2.55421108016037      0.83880330460982      0.00673504603346
  C   2.73908559179405     -0.56273322825815      0.05845503343825
  N   3.92905257740401     -1.19233532591807      0.11453177033724
  C   1.46939948622330     -1.20799685044469      0.02145782148031
  C   1.34274149570152     -2.57532212023911      0.24869971857840
  N   1.27750495562751     -3.72811422680287      0.42465616158552
  C   0.46382718045931     -0.18968786858300     -0.05298730824445
  C   1.16402589822123      1.08355577777291     -0.02228516603894
  N   0.55460007904190      2.26694289362596      0.01511573103801
  C   -0.76719894854027      2.25613648270612      0.02271835164371
  C   -1.57315713845912      1.10337566565392     -0.04850975026782
  C   -2.99831399818310      1.28544371213388      0.00643997929073
  N   -3.51971194216816      2.42920815072015     -0.47345335348783
  N   -3.88699168289051      0.49801805875742      0.60721292315582
  C   -3.78865001409361     -0.80654057643002      0.76007259988163
  C   -2.90458688990429     -1.70291749905647      0.18485454839172
  C   -1.67314139734275     -1.40253361165292     -0.39829536595901
  N   -1.08915622708585     -2.31722419449400     -1.17952655142513
  C   -0.93009462122496     -0.17660171080433     -0.13727149904407
  H   4.74359713812847     -0.65325547398576      0.35178396419573
  H   3.95073349115017     -2.16495931727582      0.36688242725507
  H   -1.23885193842910      3.22090747553704      0.16627213607940
  H   -2.99424305097729      3.04781624289949     -1.06031260357817
  H   -4.49859528566527      2.60255977418849     -0.32835209787042
  H   -4.59804408986706     -1.23875058154796      1.34110066385201
  H   -3.20590547908060     -2.74362285626594      0.18798022001427
  H   -0.14331562868392     -2.18752255657170     -1.49202214403091
  H   -1.43539156361877     -3.26030169803307     -1.21054011496304
