24
Coordinates from ORCA-job ./opt_b97-3c_parallel
  N   3.49883170819747     -2.40670627459579      0.00007479434151
  C   2.81549307530227     -1.46788483718847      0.00009307171644
  C   2.02125957295092     -0.28606079612431      0.00017982880794
  C   2.81992003373000      0.87665287922864      0.00050620460339
  N   2.52662698350857      2.15934567076431      0.00071264175113
  C   1.28192635465096      2.64368939876863      0.00062658342420
  C   0.04995280035839      2.02723138868683      0.00030657704216
  C   -0.33965302031076      0.67492693035276     -0.00002822994856
  C   0.61025441916030     -0.45829715356882     -0.00006938107678
  C   0.10309474473792     -1.76188763114183     -0.00037391363892
  C   -1.25526930462208     -2.03746776714819     -0.00065362358798
  C   -2.17437025837793     -1.00681904147181     -0.00064232602982
  C   -3.57575672587959     -0.98679523580421     -0.00088384226146
  C   -3.98640115119207      0.35909155731722     -0.00073099390359
  C   -2.86700432366412      1.18523137750395     -0.00039581008510
  C   -1.70449370071548      0.36713267448666     -0.00032774554899
  H   3.88675025907303      0.67616599841243      0.00061956491589
  H   1.25056000458112      3.72896044305525      0.00084630667634
  H   -0.77453687170298      2.72789810237171      0.00031904803802
  H   0.79685166586609     -2.58812666579239     -0.00039696373286
  H   -1.58553437898112     -3.06876936794299     -0.00088296117213
  H   -4.22108644040009     -1.85121406503174     -0.00114287342340
  H   -5.00996222559628      0.70015521840229     -0.00085588105714
  H   -2.89892910217454      2.26303148085988     -0.00022495215029
