26
Coordinates from ORCA-job ./opt_b97-3c_parallel
  N   -2.52674040677354      3.48409379920147     -0.80909486866569
  C   -1.64899691928836      2.74841283550238     -0.61835824668117
  C   -0.54478729804216      1.89295224150365     -0.39872865023996
  C   0.73749844883329      2.42245424538476     -0.31778065090524
  C   1.80178978037913      1.60488804189012      0.00739543298972
  C   3.16000465711937      1.89267741051785      0.19755940610972
  C   3.82389306000761      0.68973063772888      0.50505078646203
  C   2.91159344070872     -0.35523043448119      0.48372967420800
  C   1.62005779447042      0.17686046062430      0.17453463436712
  C   0.37222053838263     -0.41033542767776     -0.02313116782087
  C   0.18899580755292     -1.79476825669487     -0.29627913830224
  C   1.32325797739870     -2.61348458252602     -0.52244483699872
  N   2.20394943554598     -3.34559019332992     -0.71844833123327
  C   -1.01576646573668     -2.50141773400743     -0.49567680877984
  N   -2.26527429247234     -2.19779023740365     -0.24714037963284
  C   -2.63293049167151     -0.98932962737012      0.21859231247472
  N   -3.81587490906420     -0.95969318225833      0.85408440067027
  N   -2.05719060066973      0.19739018125602      0.04424654728481
  C   -0.79352130678847      0.50995532463197     -0.14251955815137
  H   0.87982802085984      3.48425906029829     -0.46761823200603
  H   3.61229673124062      2.86907940445439      0.11711504835800
  H   4.87507997981592      0.59215189694259      0.72437393532570
  H   3.14557820507813     -1.38140570892384      0.70089493296810
  H   -0.88331177525583     -3.50349530497880     -0.89134852432001
  H   -4.23834363456105     -0.07037469564395      1.05149086336774
  H   -4.37698107666944     -1.79177252034055      0.87101587865163
