27
Coordinates from ORCA-job ./opt_b97-3c_parallel
  N   4.99606814743442     -0.13044204621173     -0.00746624732428
  C   3.89392776479151     -0.50137824806962      0.00779374243438
  C   2.58251880546085     -0.99318117740409      0.03149711223973
  C   2.22789830250740     -2.36571056242494      0.06285287270134
  C   0.84713795257640     -2.49843845322265      0.07302885801562
  C   0.27570160749636     -1.20714501731567      0.06130536522637
  C   1.38139657864636     -0.25766367745443      0.02142405676099
  C   1.08926955819636      1.10118580092247     -0.05166814951365
  C   2.09659395187392      2.09722798872993     -0.15022773364526
  N   2.86716188502601      2.96024603358392     -0.22933244608946
  C   -0.23872467189965      1.52814850491796     -0.03587682055277
  C   -1.32529772515243      0.64676714085941      0.02597500031012
  C   -2.63938691353926      1.21447747059238      0.12229722717985
  N   -2.75088151974129      2.52834772871200      0.42521681698818
  C   -3.84688830380641      0.56755298924436     -0.21366887355700
  C   -4.09143557261713     -0.76608885324118     -0.39158071439588
  N   -3.33108863736660     -1.82528915353785     -0.08177137398535
  C   -2.05582038021004     -1.79443666040001      0.18527282841011
  C   -1.06464100623806     -0.77658601407374      0.05885168763021
  H   2.94121900223044     -3.17419022948170      0.06877737074606
  H   0.32337065217113     -3.43933766364229      0.05967939820939
  H   -0.40332129935176      2.58714536495823     -0.15184197543164
  H   -3.66250067848473      2.92752762074143      0.55206741548272
  H   -1.99448823708931      3.01652363464224      0.86643086378174
  H   -4.70585695828024      1.21832839954274     -0.33915521190604
  H   -5.08351384281955     -1.03077554825840     -0.74214486799425
  H   -1.66555378541336     -2.75117675441058      0.51481100827876
