25
Coordinates from ORCA-job ./opt_b97-3c_parallel
  N   5.49375010927784     -1.56460350556146      0.00030621964857
  C   4.50342219536718     -0.96044573215007      0.00031963603560
  C   3.28748013439591     -0.21752390256358      0.00030294535814
  C   3.41046116746751      1.16859051078847      0.00093148541793
  C   2.38645679732512      2.10942914561637      0.00104719051295
  C   1.02274731736993      1.92478676670925      0.00058227283727
  C   0.23368678792091      0.75696854509913     -0.00014095962243
  C   0.76834130808290     -0.60901170762090     -0.00056199173306
  C   -0.15656460699569     -1.68800388478622     -0.00127147375559
  N   -1.47140572759449     -1.57837875668730     -0.00159310691177
  C   -1.97256180266647     -0.34606171982056     -0.00122211626527
  C   -3.32630874719306      0.04370718113826     -0.00143507906719
  C   -4.44125654312749     -0.80226733051937     -0.00208085972261
  N   -5.38058221161257     -1.48736415445311     -0.00254774117550
  C   -3.35065991072609      1.46435524774472     -0.00085889505974
  C   -2.05542847289718      1.96003936506709     -0.00029335340720
  C   -1.15857670852478      0.86632540690518     -0.00049221368998
  C   2.10820547569261     -0.97660014229437     -0.00034317960674
  H   4.42021110017033      1.55604759803977      0.00137984689804
  H   2.71275947069811      3.14155161752379      0.00158199129846
  H   0.44940964773696      2.84255448937150      0.00081227061677
  H   0.23891323202911     -2.69732169741296     -0.00158451437229
  H   -4.25208052743121      2.05536663394255     -0.00086763907587
  H   -1.80209918572871      3.00799636977856      0.00020766072503
  H   2.27465731386333     -2.04689683145474     -0.00074810888354
