33
Coordinates from ORCA-job ./opt_b97-3c_parallel
  N   4.38335982484214      1.78216193726070     -0.18073272123310
  C   3.13754249571069      1.19084039518276     -0.03768642821664
  C   3.11165753257450     -0.09873779610982      0.48874102382017
  C   2.08047751883687     -1.02278936990349      0.48758432788211
  N   2.35116229420417     -2.19700764233495      1.14069477328152
  C   0.73810255253079     -0.86165386537630     -0.04239889193499
  C   -0.00777028807651     -2.01107216744971     -0.38838657756397
  N   0.64075986636902     -3.25781687609514     -0.62273238048116
  C   -1.39531966391495     -1.99186835689999     -0.47340688551734
  C   -2.09192042951213     -0.85401776072472     -0.13525445873959
  N   -3.43250311540968     -0.69357312959417     -0.07504187686567
  C   -3.60669815447689      0.60361923605598      0.24886670696196
  N   -4.87493851347104      1.10451334039301      0.40355810720144
  C   -2.39882642136086      1.32828592797612      0.35502916731647
  C   -1.37249955255417      0.38738116972971      0.12944834281954
  C   0.03807542511007      0.42126086543397      0.01447796724700
  C   0.68129163225774      1.66997368872128     -0.28452340765912
  N   -0.13223141688188      2.75274697806324     -0.50538956410861
  C   2.04168560879839      1.93349059840667     -0.44699092921716
  H   4.40188216878787      2.78673387697230     -0.13764804978232
  H   5.13120262235351      1.36297976308524      0.34420020342483
  H   4.04080694179970     -0.44132563421057      0.93320241444145
  H   1.77063194560669     -2.99076814386703      0.89557371333488
  H   3.32035021080691     -2.41572632407002      1.29340778741820
  H   1.36467958191518     -3.18272562967269     -1.32421029066376
  H   -0.02330952480507     -3.95554897172347     -0.92117726373587
  H   -1.93782470317608     -2.88061661547737     -0.77421168351226
  H   -4.96117236238762      1.90980037744286      0.99933305250907
  H   -5.56493516630572      0.39433734973318      0.58746210267270
  H   -2.31518231386343      2.33715804997974      0.72309610526226
  H   0.29031740229336      3.52852057359492     -0.98468386919098
  H   -1.08175831930220      2.55202131076476     -0.78931263116740
  H   2.27537573180039      2.91518223121152     -0.84641688790366
