28
Coordinates from ORCA-job ./opt_b97-3c_parallel
  N   -1.50560843210551      3.85900516447579     -0.01846471213366
  C   -0.92381959046180      2.84983591784892     -0.02697471755434
  C   -0.15746957055230      1.67092968949908     -0.02899237803865
  C   1.25461273627182      1.83157736016686     -0.02256868009322
  N   1.80039810179885      3.06801821880728     -0.07783632282262
  C   2.03036554654944      0.67039959110536     -0.00670862451430
  C   3.40270177224941      0.39084111398944      0.00064869079853
  N   3.67010771145537     -0.93456660814077      0.02831346168139
  C   2.46918775630781     -1.55318756101964      0.03951704833055
  N   2.32140375096945     -2.87414184910959      0.06685183953778
  C   1.38252153302683     -0.60586207459882      0.01887409429789
  C   0.01859658143242     -0.80865885297056      0.01239654934103
  N   -0.40258862166025     -2.10421587740778      0.03631662675529
  C   -1.63578270969834     -2.56573476314999      0.03853040746943
  N   -2.84893811653267     -2.03338710411268      0.01944706914640
  C   -3.08895872256339     -0.71451031263933     -0.01501110143265
  N   -4.41105784839489     -0.42282492782557     -0.05531837718517
  C   -2.20215872731007      0.37683062133688     -0.03024885243059
  C   -0.81456420204533      0.40106859324525     -0.01608354447367
  H   2.77515471256203      3.18219296597861      0.12489283047449
  H   1.21749430324054      3.87464428217712      0.06547198124247
  H   4.22274802599050      1.09498259808909     -0.02040882828286
  H   1.37040825794577     -3.22285984895771      0.06460689403355
  H   3.12631480644270     -3.47463599452917      0.07005503041159
  H   -1.67022115696301     -3.65295099638721      0.06404357877549
  H   -5.05684990238153     -1.18469551210027      0.04388460642017
  H   -4.75017497451993      0.51617584057372      0.03281829881754
  H   -2.68395892095390      1.34591967455575     -0.06187985657187
