30
Coordinates from ORCA-job ./opt_b97-3c_parallel
  N   4.84074494980098     -1.09551859749391     -0.23679431993817
  C   3.60710388541725     -0.48451266792640     -0.18379849903393
  C   3.39323042922586      0.90716742789890     -0.20881767438917
  C   2.02216990520615      1.11374765261082     -0.12665481044140
  N   1.36081800722077      2.27342916983491     -0.18427328906079
  C   0.04313528678759      2.21405335779361     -0.10034544069625
  C   -0.72853923126017      1.03987077471728      0.05705574431756
  C   -2.14601452948193      1.21401871270049      0.15098581992635
  N   -2.61769004553207      2.42849190271094      0.54492573735326
  N   -3.11523428332367      0.38978736595938     -0.22951044089125
  C   -3.04815849126456     -0.92476612552515     -0.31556555017791
  N   -4.18463232758712     -1.51652188274442     -0.81181143215120
  C   -2.04861369215191     -1.77716643639103      0.17655767212472
  C   -0.72607057856915     -1.46883921100839      0.44103924155245
  N   0.03960136045590     -2.46442049231148      0.96214478220829
  C   -0.04318978952073     -0.22828515021510      0.12592411653430
  C   1.35183828357550     -0.20084706965801      0.00040260462063
  C   2.37997514404887     -1.16544947127424     -0.04030719816403
  H   4.83535852064611     -2.05144848841412     -0.55149441175075
  H   5.56626147725960     -0.55666949080123     -0.67909676678949
  H   4.14298467396119      1.67593076308462     -0.30598643043877
  H   -0.46909855952444      3.15730039550682     -0.24470636131563
  H   -2.05351977192441      3.02353037158336      1.12001985249573
  H   -3.61522830011350      2.51295539495010      0.62068763240906
  H   -4.08277432084579     -2.40763280500161     -1.26339812686026
  H   -4.82624416943032     -0.88223687334885     -1.25617653629404
  H   -2.34704500026051     -2.80652989079262      0.33974803066380
  H   0.93355007049963     -2.20932373008781      1.35110110739100
  H   -0.42734818210377     -3.24149342504253      1.39297808898547
  H   2.28408503418864     -2.23636677631421     -0.11484209248956
