29
Coordinates from ORCA-job ./opt_b97-3c_parallel
  N   3.81261104606451     -2.59395386482669      0.37668882216706
  C   3.20730606929943     -1.60881358913538      0.24599924443865
  C   2.49756344384267     -0.39160631848916      0.08461142861639
  C   3.32795576835009      0.73379272010656      0.16143332564518
  C   3.04013362406899      2.06814560581064     -0.00891700739951
  C   1.78968422670638      2.60614132589054     -0.32171309168590
  C   0.56705093023166      1.99307142996489     -0.37810484626174
  C   0.16070750728205      0.64326526965334     -0.12400511557206
  C   1.06976777983288     -0.50149732895327     -0.07935830714823
  C   0.52154879609402     -1.78644309275207     -0.16521595089209
  C   -0.84676707567825     -2.03078222970673     -0.18764530423238
  C   -1.72269873739314     -0.98132320423833     -0.09044206758003
  C   -3.14159431841966     -0.91191384550219     -0.01375318859817
  N   -3.99035785133511     -1.97995769157671     -0.01428771669498
  C   -3.50627302572851      0.43099547974094      0.16064553634626
  C   -2.34895612021949      1.21927748233346      0.17273306464896
  N   -2.34091050788735      2.57528973469740      0.34263847986684
  C   -1.20308414114763      0.36624469496227     -0.01510638429262
  H   4.36757822997208      0.50143919841710      0.35688741207804
  H   3.87206092095978      2.75666555109660      0.05373317998141
  H   1.78173186988675      3.66521786950282     -0.55719686119562
  H   -0.22939490076790      2.62882434000105     -0.73643172401754
  H   1.19134459385221     -2.63160887807797     -0.19715670709669
  H   -1.19145049439044     -3.05645822977556     -0.24944779686002
  H   -4.95477187229739     -1.79732784309251     -0.22983113916109
  H   -3.64799296313205     -2.83513213243399     -0.41595317665101
  H   -4.51221936684128      0.79865124022014      0.29704149206886
  H   -3.16862782546398      2.96191335235828      0.76646677369481
  H   -1.49051122894091      2.97011058250439      0.71337565418790
