28
Coordinates from ORCA-job ./opt_b97-3c_parallel
  N   5.17882491726968      1.09585284967455      0.01459669762887
  C   4.10282740935133      0.64689664726454     -0.00178138071548
  C   2.83860973700088      0.06279476361823     -0.01340638564621
  C   2.55967661431681     -1.34537841537965     -0.00280928338710
  N   3.49258117592217     -2.32679567314876     -0.05146115677739
  N   1.24798147383681     -1.61561471626014      0.00783599980876
  C   0.62388787202218     -0.40606355211935      0.00203044293299
  C   1.57600134639032      0.67781130350431     -0.00824111006911
  C   1.13064998331148      1.99782645917076     -0.00943786816708
  C   -0.22264773013737      2.25007736909153     -0.00084550667410
  C   -1.19563003223141      1.22448490791160      0.00767868097665
  C   -2.53317038789736      1.63467100795146      0.01489910619256
  C   -3.73164129957474      0.95200946050136      0.01963152771715
  C   -3.96375334754136     -0.42763387983477      0.02455225243962
  N   -5.25560339130140     -0.85292497855086      0.06391269815475
  C   -2.96435938452868     -1.42792729588287      0.02603644515868
  C   -1.60640237851596     -1.28871379874352      0.01997257371868
  C   -0.75752883973142     -0.16310718022675      0.01119888568477
  H   3.18191200350329     -3.24704577909669      0.20582100758872
  H   4.43404658821485     -2.09143028112665      0.20912756853436
  H   1.83871532134983      2.81630752246081     -0.01634960636864
  H   -0.56743252622137      3.27545622951580     -0.00272043215961
  H   -2.65369604270476      2.71242048229346      0.01041017633812
  H   -4.61904083061288      1.57502281818898      0.02469881644614
  H   -5.46616546440911     -1.81707359349381     -0.11645987442145
  H   -5.99960563040023     -0.20211813202749     -0.10806671912726
  H   -3.33020464093285     -2.44876286757705      0.03670472315969
  H   -1.05252797334872     -2.22004342127901      0.01885018693288
