28
Coordinates from ORCA-job ./opt_b97-3c_parallel
  N   -4.43057273784433      1.26729389212145     -0.30403927723945
  C   -3.48841469493676      0.59391818406712     -0.22084656709547
  C   -2.39334208806215     -0.30958737156093     -0.14376312705155
  C   -2.70128331244414     -1.61964908544630     -0.50378659325114
  N   -2.01688271662391     -2.75130028887321     -0.39370300369841
  C   -0.78207182118821     -2.82928493892481      0.06608875818157
  C   0.20356055772003     -1.86053223328483      0.27792119539415
  C   1.37699116769947     -2.38086747064427      0.86018216040231
  N   2.35275431443826     -2.81133543349251      1.32916541435092
  C   0.15176590951724     -0.43758445374331      0.05200910858687
  C   -1.12117496310017      0.28805581970628      0.15716893956007
  N   -1.17539328125771      1.57859993930785      0.42571018030397
  C   -0.05702426286758      2.33273328627435      0.44125727459532
  N   -0.24288040430022      3.61283501122908      0.82698885065046
  C   1.16706454988702      1.79638737396239      0.05729561763197
  C   2.41464068944589      2.36832739885659     -0.23150171858995
  C   3.29764914672875      1.36497423751114     -0.60931589913874
  C   2.64606513158831      0.12012932032371     -0.54112580037975
  N   3.19539099366872     -1.03806329335119     -0.96691877733241
  C   1.26865618743881      0.36490245218107     -0.11925981685656
  H   -3.70551261245503     -1.75761789485500     -0.89081462544819
  H   -0.47042567477063     -3.84301630246582      0.30162356234609
  H   0.48544381558951      4.29212343063541      0.71491355587683
  H   -1.19108118410581      3.94444028400311      0.86365884481009
  H   2.66366035538343      3.41765388845612     -0.17861935150827
  H   4.32242203027606      1.50320595261280     -0.91641172653489
  H   4.16889066221641     -0.99316011721056     -1.21867360447111
  H   2.94223287375794     -1.90387954809738     -0.51492369779491
