29
Coordinates from ORCA-job ./opt_b97-3c_parallel
  N   -5.26774180975149      0.46170421299308      0.41350804516392
  C   -4.12524169724909      0.61926110182182      0.25842109478461
  C   -2.72869456183480      0.76363082090290      0.08125192687622
  C   -2.31362220355956      2.02993852642088     -0.31584319242449
  N   -1.11053918379101      2.57688421714882     -0.37936418979758
  C   0.02062597987836      1.92854423593024     -0.15323350644567
  C   0.35235897404608      0.57043516513663     -0.05920061646123
  C   -0.56132233220802     -0.57790114229871     -0.07274839983237
  C   0.00477915916818     -1.86951789070439     -0.23117951186693
  N   -0.82750210434113     -3.00922614476825     -0.39687469940621
  C   1.37926401267688     -2.08651949934549     -0.21520368623888
  C   2.26967124773436     -1.04405225582804     -0.03214947547461
  C   3.65278953759833     -0.91876903499599      0.03650341877045
  C   3.88215072885822      0.47066646473051      0.12594064500274
  N   5.08075650070964      1.10626836667108      0.17784277942755
  N   2.73934742646772      1.21042609710479      0.10803648258387
  C   1.74185895692976      0.31593534020643      0.02581816336593
  C   -1.93926225289373     -0.42635734246350      0.27683901022169
  N   -2.59817560549266     -1.46373204640169      0.81642960003779
  H   -3.11998491874813      2.71687371331715     -0.55576308951576
  H   0.88342716109441      2.58090658060391     -0.08303471631394
  H   -1.45518315414365     -2.91590377938302     -1.18414931120061
  H   -0.27965730935926     -3.84646470275119     -0.52236453576317
  H   1.74593319321951     -3.09621486181234     -0.36594686596957
  H   4.39282596553357     -1.70148239542102      0.00241860776054
  H   5.04853451735961      2.07343307474199      0.45103012873202
  H   5.87800128133670      0.59051482902603      0.50313628420536
  H   -2.15486081761764     -2.37560272405532      0.81248723013780
  H   -3.59107609962159     -1.40748778872721      0.96831354864006
