26
Coordinates from ORCA-job ./opt_b97-3c_parallel
  N   5.44432416784939      0.15803127413355      0.04056723784892
  C   4.28524524795014      0.09506702938098      0.05854456674060
  C   2.87089048636346      0.00087445488587      0.08959937467892
  C   2.31923538833878     -1.23105019091345      0.48958992716781
  N   1.08970763280511     -1.64583561718056      0.37258076927564
  C   -0.04973913257291     -1.03131235619753      0.05883943330838
  C   -1.13198546682041     -1.90428952927815     -0.20763142773037
  C   -0.88187672079920     -3.29332181407832     -0.31893246498792
  N   -0.74425869380188     -4.43980587600996     -0.43319576256094
  C   -2.44942239419772     -1.44231266124762     -0.27144937039580
  C   -2.71658805270022     -0.11501730759053     -0.03502734739421
  C   -3.93084917680308      0.58421718673504      0.04730031986494
  C   -3.63939390300798      1.92686324547420      0.33400808055482
  C   -2.26034445084012      2.09847184656151      0.40332144048040
  C   -1.63486555310293      0.83863758325724      0.17331059849084
  C   -0.30546899545783      0.43295605367163      0.07009474043874
  C   0.75915876202588      1.34901619678435     -0.19379720393164
  C   0.42273059167955      2.68735413066334     -0.53936321470947
  N   0.22958222037118      3.79304597119452     -0.83507004101044
  C   2.13604695392066      1.13523533607765     -0.24030722916163
  H   3.00918823092425     -1.96512229661286      0.89316510974746
  H   -3.24786743758666     -2.14989140010760     -0.44814096928441
  H   -4.91205950172628      0.15640425865247     -0.08531943884785
  H   -4.36732338551264      2.70867405367565      0.48073398673565
  H   -1.77039080962253      3.02685753736712      0.63255613565819
  H   2.72006962312399      1.99799157270130     -0.52902234707665
