26
Coordinates from ORCA-job ./opt_b97-3c_parallel
  N   3.46545639880363     -1.47893746550505      1.20538156505446
  C   2.76112108376439     -0.69421537495510      0.71882052905427
  C   1.95142473478917      0.35639009974734      0.21059492827865
  C   2.57842526139015      1.61841656072292      0.31440632853277
  N   2.22569582401437      2.79870565623762     -0.13894705901243
  C   1.03540857208310      3.04248945457320     -0.69696677730938
  N   -0.11203830341832      2.42696455564846     -0.58755362571256
  C   -0.38255348124826      1.18130403442820     -0.17908252001029
  C   0.61179563009787      0.07561571302054     -0.15851308310674
  C   0.14853545505446     -1.23681605935636     -0.31208125093943
  C   0.99599423427169     -2.31258948866785     -0.64351372824015
  N   1.54677834952529     -3.27787851122525     -0.98690483126348
  C   -1.24184566149381     -1.56643319869053     -0.14288475738865
  N   -1.62871685925504     -2.84043384584908     -0.26793778304289
  C   -2.13567375169959     -0.53656791211531      0.17342268650082
  C   -3.51790951578554     -0.52553085657989      0.38270188704063
  C   -3.93825170461667      0.82032489998724      0.46403501533159
  C   -2.84409828917171      1.65266055230345      0.27816045462795
  C   -1.69709722473348      0.83716154765373      0.11145741040006
  H   3.54344965897406      1.59988292131593      0.81091950914326
  H   0.99672697625606      3.96766575416540     -1.26407068666326
  H   -2.59054784810662     -3.09895159828332     -0.15776113236308
  H   -0.96749662119335     -3.56529168397293     -0.49110685326195
  H   -4.17167404174737     -1.38194192952960      0.45535721804653
  H   -4.95294203380616      1.14253367552485      0.63693163450554
  H   -2.84349068483460      2.72956993060555      0.27076926909503
