27
Coordinates from ORCA-job ./opt_b97-3c_parallel
  N   4.82178924777836     -0.48745114409734     -0.06070758076317
  C   3.69927097317513     -0.79228316771945     -0.05152791757344
  C   2.36208345053798     -1.20661001175574     -0.04582972002256
  C   1.92917914396143     -2.56530695807961     -0.06746453498563
  C   0.55009593086704     -2.61658386400130     -0.05750188568924
  C   0.05372230743408     -1.28686178710828     -0.03369549669441
  C   1.20870080469905     -0.40422567563441     -0.02635478299315
  C   1.02146466590080      0.97582743193583      0.06672640789381
  C   2.10974018167942      1.87133736218436      0.18924902753611
  N   2.92210278005546      2.69296902225679      0.30483255963631
  C   -0.27598494378224      1.53024316936860      0.05107261691008
  N   -0.43600419519513      2.89852251694937      0.07920652009151
  C   -1.41576552217724      0.68358535538629     -0.05743836944376
  C   -2.63049492644695      1.31209229682363     -0.38412590337796
  N   -3.90466885415942      0.95182101987276     -0.29280795129580
  C   -4.36185385814414     -0.23674416798904      0.05560722386809
  C   -3.67908646391280     -1.44790860688188      0.18258683746794
  C   -2.32294244014458     -1.66841794230096      0.12986867354292
  C   -1.24302098307044     -0.77085235954422      0.01411865411686
  H   2.59727660725104     -3.41066273759471     -0.09873227124414
  H   -0.03214423415291     -3.52241960185991     -0.09147177518941
  H   -1.19046857500228      3.25156673582474      0.64164766089589
  H   0.40926456880842      3.43318847316542      0.20047893607204
  H   -2.51704573025875      2.31692463428935     -0.77706201927903
  H   -5.43517762944407     -0.26685471209375      0.21849893019502
  H   -4.30154195953588     -2.31916566314932      0.34612875328509
  H   -2.02892593442202     -2.70402979344638      0.23355289094020
