24
Coordinates from ORCA-job ./opt_b97-3c_parallel
  N   4.03649489270733     -2.33649075943440      0.00129782372663
  C   3.26753480781565     -1.46779878769504      0.00142950506332
  C   2.34221162519739     -0.38304528226741      0.00135090187800
  C   2.91276856408191      0.90480346627871      0.00071876684665
  C   2.25538171216274      2.11030267684896      0.00049830903645
  C   0.88624694840847      2.37151712634744      0.00082200424301
  C   -0.22303974979099      1.53155387683645      0.00141297173818
  C   -1.49056556101408      2.16273894196858      0.00151745157110
  C   -2.67762458388958      1.46794917792753      0.00197569050847
  C   -2.66268621150427      0.07323809601020      0.00241765278051
  C   -3.62862375882210     -0.92872180140390      0.00292200315671
  C   -2.90401622159442     -2.13952618293557      0.00321652225618
  N   -1.57143620246062     -1.96820973460685      0.00291462729361
  C   -1.38760888283989     -0.62119019017526      0.00241042394095
  C   -0.16432482370457      0.06127033665403      0.00189827627764
  C   0.99874304099144     -0.72337709784213      0.00187374436059
  H   3.99403648838965      0.94045573176567      0.00036357497007
  H   2.88992649465043      2.98743270688119     -0.00000632102446
  H   0.63968770543228      3.42710686829275      0.00053256736475
  H   -1.51188752575172      3.24380680064831      0.00117767468223
  H   -3.61501229500152      2.01051049684724      0.00199276081513
  H   -4.70026913596428     -0.81212909746610      0.00307704758569
  H   -3.32112983419413     -3.13660515727790      0.00364359941873
  H   0.78424902439490     -1.78498736410249      0.00230871000989
