28
Coordinates from ORCA-job ./opt_b97-3c_parallel
  N   -4.95184198290895      1.54764307262770     -0.00912157339362
  C   -3.87357597773705      1.10637113054172      0.01081378805413
  C   -2.59549439502050      0.51399287251254      0.02617779449470
  C   -1.50696575664641      1.38946433422078      0.02591733222493
  N   -0.20476728104548      1.22308144665080      0.02691195942913
  C   0.50721197316354      0.05806852126611      0.01958488064030
  C   -0.01057478204962     -1.31609866794194      0.00638442679761
  C   0.92012799305219     -2.37041932356272     -0.00774874706189
  C   2.29656931336292     -2.18799498395474     -0.00668739327636
  C   2.80329514149783     -0.90647639883242      0.00882074044946
  C   4.11777610561467     -0.37281469112526      0.01280506852266
  C   4.05473360772075      1.01315210481727      0.02721327898364
  C   2.69021538178250      1.39643085079893      0.03257572336183
  N   2.16661885892642      2.62077492996789      0.04531175909723
  C   1.88773166488058      0.19605915182591      0.02209181473617
  C   -1.37356349767983     -1.67095595349668      0.01194409218496
  C   -2.53412451609648     -0.91789302609656      0.02646639196435
  N   -3.72420873307242     -1.58241583880666      0.08176062613550
  H   -1.79925374628938      2.43679076254541      0.02299467674007
  H   0.53097330257653     -3.38008919479410     -0.01746066393695
  H   2.95254230811819     -3.04936760170625     -0.01751725779473
  H   5.02556025642904     -0.95695653614679      0.00502685745937
  H   4.89236318174876      1.69261714575640      0.03349772194481
  H   1.14870119662339      2.65909426272554      0.04248597712623
  H   2.73741877201389      3.44631398418291      0.04804372646365
  H   -1.54247649870081     -2.74254269542545      0.01603634011102
  H   -3.73936500765385     -2.56405844957072     -0.12332372848900
  H   -4.57753010301051     -1.08211854937957     -0.09745445276916
