29
Coordinates from ORCA-job ./opt_b97-3c_parallel
  N   -4.87038896548736      2.09367279195726     -0.01652960052024
  C   -3.86803893392478      1.50123078426865      0.00837504284331
  C   -2.70256088233943      0.72724006173985      0.02647675438526
  C   -1.37414480174286      1.18557079419149      0.03819836252649
  C   -0.51461370115409      0.07514361845853      0.02190322397754
  C   -1.35360582289242     -1.11093771159584      0.00349493769412
  C   -0.76717829737739     -2.36476343387154     -0.00039990759169
  C   0.60541560368033     -2.47861531788693      0.00010097223194
  C   1.47390549173778     -1.36446930442596      0.00762613185701
  C   2.84610271776435     -1.64732160193570      0.00004599297751
  C   3.96149937232323     -0.82314992635411      0.00741562812691
  C   4.05848387457090      0.54753767580238      0.02237708826026
  C   2.99709025190285      1.47150928198291      0.03539796547536
  N   3.35032551717996      2.80494174982180      0.10763067951035
  C   1.63760288121495      1.17832669332528      0.03682089814459
  C   0.89904925435146     -0.01399724466662      0.02064955372216
  C   -2.69988399947219     -0.69938162746660      0.00118106044339
  N   -3.81882691191498     -1.48441874024223      0.04650634481639
  H   -1.10873700962378      2.22962435823033      0.04822405931010
  H   -1.37035818990379     -3.26559119796518      0.00336466009078
  H   1.05277890194741     -3.46294034405041     -0.00243550111636
  H   3.07723808086949     -2.70587422110208     -0.01187728945883
  H   4.90956290707990     -1.34855489065828     -0.00287776294331
  H   5.05879291811472      0.96382438533789      0.03669583486240
  H   4.27373607576318      3.04731097546140     -0.20541484729096
  H   2.65324159487178      3.47757433297915     -0.15979490223990
  H   1.01466525079352      2.06444762622704      0.05340216738551
  H   -4.68474406196007     -1.03054250133311     -0.19491819166503
  H   -3.73934130637288     -2.40988536962936     -0.33736919921515
