31
Coordinates from ORCA-job ./opt_b97-3c_parallel
  N   -5.52180083814278     -0.13697928844265     -0.22887779022042
  C   -4.36222208214003     -0.11367151106483     -0.14753499309061
  C   -2.95116774930810     -0.17275680408088     -0.06630677521014
  C   -2.29260452670843      0.99923166674381      0.26645980983070
  C   -0.93800546965309      1.31539215488192      0.33480021405173
  C   -0.71417500222239      2.62384295180293      0.84734940427203
  N   -0.61100672492520      3.66267763222080      1.35625091472088
  C   0.19982076676957      0.51134027188421      0.02657811467963
  C   1.43232136499149      1.12541953315138     -0.23492696235766
  C   1.53780505066267      2.47770356828137     -0.61808745515568
  N   1.78831498029860      3.53866402732543     -1.02460043726684
  C   2.67516013575568      0.40066898626964     -0.22319398537071
  N   3.81557196077098      1.05250023774187     -0.48417022289150
  C   2.64286373166059     -0.95713358568386      0.08957209359817
  C   3.66261346031897     -1.91164280286233      0.24057660989464
  C   3.05366384546178     -3.15145970280986      0.48018851313937
  C   1.66735893366818     -2.99161720921237      0.46190066839811
  C   1.37832670818324     -1.62921791639332      0.22334694187930
  C   0.14560977072189     -0.95788675205440      0.06729070326623
  C   -0.99609406971711     -1.73160087356314     -0.12845088497138
  C   -2.35333733126189     -1.44762115836534     -0.27467554219355
  N   -3.16961445540972     -2.47666873710909     -0.61874224977415
  H   -2.94897739055788      1.82543868591724      0.50229085722200
  H   4.68637712965815      0.55889200241101     -0.52719667729322
  H   3.81408926733115      2.03080531589072     -0.71822945160082
  H   4.72729347911583     -1.73702121131558      0.20319610387720
  H   3.57454511352497     -4.07747429717305      0.66660200608480
  H   0.95299498245573     -3.77614007290341      0.65529472405887
  H   -0.77199094369768     -2.78424799646136     -0.24228546744697
  H   -4.16824398212453     -2.36768327043672     -0.59162986138055
  H   -2.81826981518057     -3.41546025918991     -0.61883814694939
