29
Coordinates from ORCA-job ./opt_b97-3c_parallel
  N   -5.69493800872710     -1.31159122945275      0.04787032064055
  C   -4.56426750330107     -1.04504131305900      0.02897093159251
  C   -3.17902877361646     -0.74148472522038      0.00440664782236
  C   -2.29116271574668     -1.83799353794059     -0.09851154057697
  C   -0.93019243009938     -1.84485458615992     -0.12004410280040
  C   0.03878716187763     -0.80784581850241     -0.05378299861087
  C   -0.25446382687669      0.63013102976224     -0.02373301083868
  N   0.71008409253617      1.54876443049300     -0.07808794513563
  C   2.00365050564635      1.20617220607478     -0.10141594819878
  N   2.88138696686073      2.24101250499015     -0.22419782946302
  C   2.40845767782947     -0.12006143701779      0.02180091663169
  C   3.65762553113048     -0.75384444637948      0.10673348415147
  N   4.88466095281247     -0.13895189843877      0.18426138136654
  C   3.42760640976987     -2.16099989000095      0.07361589749853
  C   2.07148200307518     -2.39560490850640     -0.00074792812809
  C   1.39051855771037     -1.14086601717182     -0.02028263671263
  C   -1.56456296371436      1.19470004204161      0.05968263747615
  C   -1.60461898951231      2.61709716535874      0.12838650990314
  N   -1.73527012043457      3.76914227969022      0.18859616575797
  C   -2.82518588848358      0.59476680484861      0.07983593000316
  H   -2.76633706696054     -2.80818944760728     -0.15979488743310
  H   -0.49981085690285     -2.83436774751115     -0.19404574337828
  H   2.44834260849648      3.12223601375343     -0.45193898484970
  H   3.75165961476660      2.05805609013492     -0.69496308285866
  H   4.90829333178546      0.71535789909975      0.71907010640490
  H   5.65203699493996     -0.74520511845659      0.42318162347310
  H   4.19953048360674     -2.91393430748596      0.12600252252643
  H   1.61676090339864     -3.37248435329373     -0.01143180665948
  H   -3.64973737546708      1.29017663625751      0.15534124689575
