33
Coordinates from ORCA-job ./opt_b97-3c_parallel
  N   -5.51797213703577     -2.11497043176560     -0.63900504508999
  C   -4.56188640320597     -1.48171041400289     -0.44527768197908
  C   -3.44768164848202     -0.64151853567799     -0.21290812754198
  C   -2.22590272872612     -1.25658154627200     -0.01915413200868
  C   -0.91617122563787     -0.77750538061869      0.11944314084566
  C   0.04768107850045     -1.80282830477043      0.21564508592276
  C   1.40908716078322     -1.56134076439260      0.22437234563422
  C   2.29860318508175     -2.65926469883753      0.34363273361262
  N   2.99035916137102     -3.58444395454561      0.44960804953599
  C   1.86721346319078     -0.24681661944849      0.06572279841422
  C   3.15219353289163      0.28297888343982     -0.06052968580321
  C   4.39718640707116     -0.34942127946198     -0.06317695347804
  N   5.48711793092247     -0.75854513748659     -0.09242414946469
  C   3.01002535954613      1.69605358861088     -0.27479644997690
  N   4.06304126218828      2.52810790063081     -0.45258405317949
  C   1.65705022269849      2.03629837953953     -0.22901121251317
  C   0.90315884350481      0.85379275065448     -0.01893306338835
  C   -0.47666853644456      0.60434931792113      0.10311913813049
  C   -1.39422288700274      1.69260542786167      0.35164556008536
  N   -0.84520994588285      2.86528330878716      0.76434215188331
  C   -2.78039225328620      1.73035778245502      0.19483940429440
  C   -3.71451004453020      0.75987922216855     -0.14174880041243
  N   -4.98733995964694      1.15932512238485     -0.36686040976008
  H   -2.28913998201307     -2.33669510890935     -0.02890676808712
  H   -0.29187718650001     -2.82626122526053      0.26254417524389
  H   4.95447306248157      2.11779960110306     -0.67494661144773
  H   3.89985433990505      3.43960964843342     -0.83936621762083
  H   1.27974867332127      3.01321720262341     -0.47625047893012
  H   -1.45145546458418      3.56072067383361      1.15992702356451
  H   0.09664187995355      2.84778325640391      1.12182758931139
  H   -3.20977105330136      2.71471792872158      0.34892842887610
  H   -5.25239315827944      2.11752452295874     -0.24161063138775
  H   -5.72655403665187      0.48784384261712     -0.47871455388420
