25
Coordinates from ORCA-job ./opt_b97-3c_parallel
  N   4.11781685651627      0.87246580593428     -0.15295127324792
  C   2.91144526591444      0.22313085645004     -0.01988736093518
  C   2.95271571516130     -1.17445911404684      0.14831748433607
  C   1.86592035225372     -2.01512022247367      0.20567303205274
  C   0.51298210923502     -1.72145475999069      0.13282482876856
  C   -0.14856849752260     -0.49566350973491      0.02663394678803
  C   0.55772606400548      0.81690109404632      0.08441774078855
  C   -0.21879184743457      1.98687559107993      0.18704413452247
  C   -1.59869017697008      1.97452137380325      0.16803866864833
  C   -2.28845980826916      0.77835534814685      0.03248882787918
  C   -3.65716667455517      0.47865993508199     -0.04068750502395
  C   -3.78476396867299     -0.91447697237631     -0.18219797938136
  C   -2.51701179457776     -1.49479958613528     -0.19117144989458
  C   -1.55169679175671     -0.46391930039751     -0.05587247294443
  N   1.87141750823346      1.04120844451867      0.00958413327568
  H   4.04372809510984      1.83446876543362     -0.43621688263353
  H   4.89074395225923      0.36497501984911     -0.54479747177887
  H   3.93391057034491     -1.62655529544419      0.23087344962159
  H   2.10001586464820     -3.06692233871778      0.32275919732361
  H   -0.13743759649389     -2.58421700048675      0.18721471833040
  H   0.32451114641193      2.91791065247931      0.24656742176727
  H   -2.14063301417648      2.91042645716859      0.24000647127399
  H   -4.46460618808261      1.19358855476734      0.00050237011844
  H   -4.71614588755033     -1.45198842764393     -0.27548751049885
  H   -2.32132387963146     -2.54944946491145     -0.30796876935623
