27
Coordinates from ORCA-job ./opt_b97-3c_parallel
  N   -5.31338742116891      1.40321845311871      0.63740653906936
  C   -4.21889920079053      1.04577412026877      0.46401528996111
  C   -2.93309302281698      0.53682111556249      0.25115724984802
  C   -1.71478793259435      1.23981513644628      0.25708587805385
  C   -0.67396309154051      0.32478710260425      0.04461594363290
  C   -1.26489320551585     -0.98369476901824     -0.10652021496589
  C   -0.43419426624689     -2.04173353581517     -0.42060430876911
  N   0.88928037959564     -1.95995401679086     -0.42158277966062
  C   1.49357035900839     -0.77631477962576     -0.16136663080699
  N   2.79108461110200     -0.89566932449094      0.08422275533895
  C   3.75923617529100      0.00320923549593      0.18823118167485
  N   4.91207123267099     -0.49589629318922      0.71199111020610
  C   3.74860369296060      1.35666876057909     -0.21045474550946
  C   2.61521768990078      2.10750054807550     -0.42633299844392
  C   1.28241240233533      1.74036446830227     -0.33091224843810
  C   0.71492457508753      0.48080642771477     -0.11038996957542
  C   -2.66669547807998     -0.84834840389873      0.01996900876383
  N   -3.61560191919699     -1.80826448486762     -0.10236257296542
  H   -1.62844400902684      2.29856171498244      0.43762192843988
  H   -0.83717810470296     -3.01906045654496     -0.67606456589719
  H   4.99051040962693     -1.49567530024564      0.76868145779743
  H   5.75874154847897      0.04043383233234      0.68626408264696
  H   4.70522665724636      1.85854674295087     -0.28838526366108
  H   2.78805295445869      3.14699497832885     -0.67985846844938
  H   0.57296460555134      2.54388725784517     -0.48001775458432
  H   -3.35006000619075     -2.76701113525893      0.03020573352819
  H   -4.54921529974303     -1.58261555226165      0.19714622686547
