26
Coordinates from ORCA-job ./opt_b97-3c_parallel
  N   3.55647544577291     -2.74982650254998     -0.72549405944521
  C   2.83011240609159     -1.86700239395973     -0.52407825689891
  C   1.99116509843070     -0.74796365247708     -0.31530113876227
  C   2.52141592670428      0.54094713236484     -0.41659803587476
  C   1.75025872974965      1.63031648848816     -0.07884644757519
  C   2.05959993811699      3.00425973767677     -0.02023438967252
  C   0.90947402656991      3.69038477797791      0.38391761494298
  C   -0.13462592866557      2.77791134422609      0.55137605856045
  C   0.35404729516070      1.47462917762168      0.27028235737191
  C   -0.25440036820383      0.21543524231615      0.19987973180037
  C   -1.64323080941184      0.04533256620919      0.00162510586221
  C   -2.43169752840531      1.17881732466501     -0.28909255079502
  N   -3.17370474004036      2.03288807496095     -0.56119358595591
  C   -2.37193809137369     -1.19325241098430     -0.07969321144122
  N   -3.57748729645407     -1.19175440572246     -0.67279248138035
  N   -2.03298899156057     -2.36415217686307      0.46232527295957
  C   -0.81684406313515     -2.68587043016391      0.84820633213327
  N   0.35898288584715     -2.18132949681424      0.53286591112934
  C   0.65812866681608     -0.95983498929692      0.11905119802048
  H   3.55805298819215      0.66033483610979     -0.70162928269577
  H   3.01889572971775      3.44084039917649     -0.25073832295736
  H   0.83490110126277      4.75375610936832      0.54605710517143
  H   -1.12555968304304      3.03355275909588      0.88300583962562
  H   -4.00255319042171     -0.35216270650216     -1.02387348123203
  H   -4.13482183381337     -2.02284207534246     -0.58983509184421
  H   -0.76418278150410     -3.58988833308091      1.44692276995304
