31
Coordinates from ORCA-job ./opt_b97-3c_parallel
  N   -5.86229869057981     -0.74388626246773      1.29847499747782
  C   -4.82143949157714     -0.39582191378035      0.91879966510815
  C   -3.55221442415863      0.02454616252735      0.44398064387324
  C   -3.32922540309621      1.40191477241096      0.38349273053254
  N   -2.34035542210834      2.06286492688851     -0.17638176075166
  C   -1.18238339280473      1.59236752033599     -0.60849910128810
  N   -0.54508780569097      2.36710366251093     -1.48574817700303
  C   -0.51464256764196      0.35061644999379     -0.21876991760865
  C   -1.28006959436598     -0.88369425092052     -0.17914916760236
  C   -2.62283838044552     -0.98143224249075      0.11812073397128
  C   -0.52095238765092     -2.12088709064197     -0.29373694737252
  N   -1.16407228512661     -3.30753205621652     -0.49338815691308
  N   0.78616253670964     -2.18743005438953     -0.13063573616652
  C   1.45055403836849     -1.04596922530642      0.07233726403736
  C   2.82302047985983     -0.89450433832262      0.27414062396131
  C   3.80068875986273     -1.88317770821403      0.39462617513656
  N   4.67126849524733     -2.64766713774692      0.50585747436906
  C   3.10266082439974      0.51407290015712      0.31110372987640
  N   4.31763344786783      1.03397845902331      0.50538991858830
  C   1.90797194492042      1.23790562144286      0.10414212028475
  C   1.84637814564459      2.62552339505005      0.18768265337584
  N   1.83632132420550      3.79153063177376      0.23792026028768
  C   0.84451322829195      0.28060607500567     -0.02934409700207
  H   -4.10527662555329      2.03419615985934      0.80162704557051
  H   -0.88508996017305      3.30222007443777     -1.63628263295630
  H   0.38650084870666      2.14958179626958     -1.79011923234600
  H   -3.00572018087917     -1.98540366831436      0.23556772962541
  H   -0.54243374218538     -4.09395036691350     -0.58602121130915
  H   -1.96330516469928     -3.33016468918666     -1.10051287621036
  H   4.44077320311161      2.02677048620828      0.59483127473873
  H   5.09405131823939      0.43935267911801      0.73403473521491
