30
Coordinates from ORCA-job ./opt_b97-3c_parallel
  N   -5.34829349455816      1.65719818228153      0.29146553722545
  C   -4.36641315077686      1.03353731336081      0.22545212202362
  C   -3.14966641130222      0.35246520221925      0.14755467590098
  C   -2.92855398528303     -1.03707110414210      0.06641582138910
  C   -1.55261361423313     -1.27922276367657      0.01417713077864
  C   -0.79467206619302     -2.45612824225000     -0.08661163014652
  N   -1.37596658187872     -3.69109413670255     -0.10894078951519
  C   0.59880063379489     -2.33834710603533     -0.09454143939761
  C   1.29418674231565     -1.13078409057659     -0.02032340132249
  N   2.62729078499843     -1.24041994381590      0.05826858838584
  C   3.51288785486705     -0.25086263032777      0.10604948102680
  N   4.79353718573607     -0.68455755493569      0.25018982502452
  N   3.42630580203806      1.08120242148405     -0.01502998615967
  C   2.28364903038438      1.74745060316440     -0.10432661128224
  N   2.45392199524717      3.09675732469548     -0.23906086617874
  N   0.99445770634103      1.38705927535060     -0.03617932940753
  C   0.51230069375948      0.13517277187642      0.00388199328247
  C   -0.87084007861733     -0.01859746186650      0.06202880807485
  C   -1.87750446996330      0.99659199924162      0.13790572017648
  N   -1.63691222510060      2.30474280935544      0.19110470573605
  H   -3.72157623408575     -1.76851475567766      0.05916334428489
  H   -2.34470075442370     -3.75146308775267     -0.36450590287472
  H   -0.81579641567250     -4.46139372029030     -0.42765360269510
  H   1.20846765721717     -3.23146329693329     -0.12112177804909
  H   4.93520694903940     -1.64484141860480      0.50153737677703
  H   5.50010641535347     -0.00818499579541      0.47058046347076
  H   3.37465303247361      3.40231901689737     -0.49719656611750
  H   1.67843119138392      3.62479116931027     -0.59403701208913
  H   -2.38230261632780      2.97043587198896      0.29489212415981
  H   -0.66058434013367      2.57543850005698      0.19243273861823
