27
Coordinates from ORCA-job ./opt_b97-3c_parallel
  N   5.68449388799560      0.86609241540132     -0.00681014329953
  C   4.57265733116039      0.52073644939200     -0.00414788540520
  C   3.22494999972524      0.10104559773184     -0.00119174929051
  C   2.96501982972217     -1.29319100423228     -0.00225304364502
  C   1.77224614434388     -1.94278828096204     -0.00011883453333
  C   0.43600914371721     -1.42687764012353      0.00307113377058
  C   -0.60614964558181     -2.36261117207854      0.00463902208028
  C   -1.96183589806449     -2.02691935889440      0.00611246399919
  C   -2.29297200341404     -0.69705568294642      0.00527977286662
  C   -3.51448426035794      0.06843506729913      0.00430360612967
  N   -4.76559007368193     -0.41677557014248      0.03652068361939
  N   -3.28894309142829      1.39286671183263      0.00812027707492
  C   -1.94131288733723      1.54114357668012      0.01007215763433
  N   -1.33150855624421      2.71472454656586      0.01103252724173
  C   -1.25384880993049      0.27980285818028      0.00563170056252
  C   0.10388575069637     -0.01267287346051      0.00435576291505
  N   0.93805767313599      1.07998321296231      0.00586209594555
  C   2.25138612079097      1.10897948572971      0.00363554939277
  H   3.84567335841970     -1.92355817154888     -0.00494574913479
  H   1.83183930623145     -3.02403574707293     -0.00097699502155
  H   -0.33582341735200     -3.41008742235333      0.00560276489268
  H   -2.70545295687438     -2.81430831160549      0.01217039903545
  H   -5.52330141100291      0.22739394124992     -0.10680346378714
  H   -4.93838880092613     -1.38397207173248     -0.16217080518784
  H   -1.85636350153789      3.57141584050076      0.01968480992662
  H   -0.31379111679456      2.67547983863103      0.01170345722925
  H   2.65432519158933      2.11893971579638      0.00562450958834
