28
Coordinates from ORCA-job ./opt_b97-3c_parallel
  N   -4.11717023316714     -2.54580614245947      0.52229072545406
  C   -3.19340168059740     -1.85705439668292      0.36650478210638
  C   -2.11450964606973     -0.96313676758378      0.15680031544654
  C   -0.84995417830043     -1.55067951094158      0.09897265521571
  C   0.43348895845869     -1.05312205840996     -0.05774257665896
  C   1.49869604379323     -2.01111117395853     -0.17386276199231
  N   1.19919431116236     -3.35425318871615     -0.34640987492213
  C   2.83204875399711     -1.62549906594042     -0.05988471271828
  C   3.15218733495694     -0.29041975427505      0.10409539717145
  N   4.34824726326874      0.32132462913088      0.19233379664118
  C   4.00025197419599      1.63000293493149      0.23940755461160
  N   2.68679466202915      1.93402457383921      0.18839506029241
  C   2.10756723749917      0.71749236730091      0.10400705350281
  C   0.75547248275800      0.36923039146630     -0.00491512221846
  C   -0.15956214711147      1.41947484450162     -0.07340166568422
  C   -1.54288135519773      1.47291953170851     -0.13470668267452
  C   -2.11513055860005      2.76311905712496     -0.27214661987383
  N   -2.65371721128212      3.78670960717246     -0.38502669732564
  C   -2.48078215251850      0.40157985843163     -0.01380138826828
  N   -3.78410554865497      0.70657428841645     -0.03915262722566
  H   -0.89473733815799     -2.62318206338199      0.23607672569268
  H   0.51114330994794     -3.56980570241751     -1.04818809143454
  H   2.00663554155361     -3.94687818241899     -0.44114043514640
  H   3.61998509792594     -2.36465706640384     -0.13956917224386
  H   4.74958642806334      2.40440626994445      0.31645415146804
  H   0.32671100592362      2.38757176242414     -0.09056796615439
  H   -4.48543173433635     -0.00564896273616      0.07320004958416
  H   -4.09025542253926      1.66133417433312     -0.12179235204541
