31
Coordinates from ORCA-job ./opt_b97-3c_parallel
  N   5.82262843585405      0.57931884201581     -1.02759276780290
  C   4.70936151928226      0.36641780586578     -0.76532861711624
  C   3.39862687313597      0.00359867318307     -0.43250561121738
  C   2.25495973836125      0.79570324049509     -0.43122172090303
  C   1.14177243593392     -0.00641556485713     -0.06482601593518
  C   1.63748269660896     -1.33864428557314      0.16903925541110
  C   0.75190338898488     -2.31534627837844      0.57739727658327
  N   -0.55174218724677     -2.11298308172294      0.61012945123689
  C   -1.07000796996321     -0.90474123022774      0.28406890484058
  C   -2.45729461791720     -0.94283926891944      0.07597205345935
  C   -3.07310620558810     -2.21319629746029      0.16593157987355
  N   -3.72059364771411     -3.17977323986413      0.18153747817219
  C   -3.31807076342507      0.12623315059960     -0.35385882285610
  N   -4.49780841273273     -0.22028686933160     -0.90559725740151
  N   -3.13572102031013      1.42564193636077     -0.23672287447277
  C   -2.05210419191503      2.06804934332829      0.19076375291133
  N   -2.30699967518491      3.34740949653169      0.53714100871842
  C   -0.69973090332198      1.61278542600945      0.25380538108296
  C   0.22608836562218      2.63527488953148      0.53487612869941
  N   0.90234579540288      3.54907681649208      0.79018239460712
  C   -0.21918252196349      0.28167721084495      0.11382221121715
  C   3.03444998302465     -1.33367523318623     -0.04674795628549
  N   3.90462121173203     -2.34332174087222      0.07857027047152
  H   2.24690432868552      1.83553395437188     -0.70149830060610
  H   1.07973275600695     -3.30653007087218      0.87803867222236
  H   -5.17084669874796      0.50802518165888     -1.05982280717560
  H   -4.80087952590670     -1.17762989598948     -0.93356902889085
  H   -3.22844909079319      3.69868034595652      0.35361255999951
  H   -1.57223810216915      3.99519414875925      0.75854796690279
  H   4.86983992057181     -2.21176025642575     -0.16904874444242
  H   3.59835906149308     -3.28077287112381      0.25777910819587
