28
Coordinates from ORCA-job ./opt_b97-3c_parallel
  N   5.84232546810901     -0.95134739959668      0.00488663812862
  C   4.75423606283271     -0.53551282203689      0.00385520450781
  C   3.41437752450308     -0.10262789249663      0.00309386534809
  C   3.18435366544102      1.27422219946809     -0.00032194459030
  N   2.08852497881298      1.99875399240088     -0.00170419784800
  C   0.81168509860456      1.56346452961231     -0.00031130334197
  C   -0.14248917229486      2.59437864845790     -0.00239170363769
  C   -1.50858164391317      2.37373993037122     -0.00180907027081
  C   -1.97870699712414      1.07516809192233      0.00100428249742
  C   -3.28878459989839      0.52652983554714      0.00226912015952
  N   -4.45890978092251      1.17407875099724      0.00060879011480
  C   -3.15801152353577     -0.90724976720359      0.00533336171873
  C   -4.25778527987384     -1.77250147195195      0.00734704311605
  N   -5.22218832683225     -2.42394125048753      0.00889429050080
  C   -1.80218902553858     -1.22090652222577      0.00597003526475
  C   -1.05142098179216     -0.02113469979087      0.00331797164902
  C   0.34187140410114      0.15771715438333      0.00305436065845
  N   1.08086343310262     -0.96087362938874      0.00594227900396
  C   2.38884410574794     -1.11449678261102      0.00607903591705
  N   2.79805014005103     -2.39844162124685      0.00935916028699
  H   4.09193045959794      1.87242757161146     -0.00217329091694
  H   0.25118358422157      3.59957083427313     -0.00470077263627
  H   -2.17985070840851      3.22462236582196     -0.00362922430131
  H   -5.32479850122734      0.66395857650642      0.00291584323850
  H   -4.50840478724757      2.17513174153785     -0.00009034686605
  H   -1.39120460908531     -2.21551503474962      0.00815352722370
  H   2.09623131755957     -3.11548700390693      0.01194561254784
  H   3.76922521150923     -2.65305610901822      0.01055344722723
