35
Coordinates from ORCA-job ./opt_b97-3c_parallel
  N   -5.19734885579959     -0.18217154823566     -0.27114174661453
  C   -4.08086239956692      0.13611608961209     -0.16511298514374
  C   -2.78859886670915      0.64756399900210     -0.04966161833603
  C   -2.50668891366582      2.05170691602489     -0.07814365533814
  N   -3.47675178905072      3.00973201477304     -0.14600146432538
  C   -1.13053192469735      2.25280033588593      0.02948283768857
  C   -0.50385038214744      0.98308926319603      0.11364897081377
  C   -1.55542058898293     -0.01690347112395      0.04262828378843
  C   -1.20797484946942     -1.36797887614747      0.00516442924320
  C   -2.18978325461565     -2.37212009012245     -0.15965675197074
  N   -2.92524094020152     -3.26197666591645     -0.29515409433674
  C   0.13916171833113     -1.77158620951769      0.07609045863471
  N   0.42771326225051     -3.16146522749330      0.00671498104287
  C   1.17566926609829     -0.82258322797119      0.21028800630015
  C   2.54948203697609     -1.28174335914773      0.41076877143232
  N   2.73087595050604     -2.43543536549480      1.09665654713596
  C   3.68453836235987     -0.66022602758193     -0.09002476291198
  C   3.78844883085396      0.65717803803101     -0.55385441596779
  N   4.82405910136275      0.98622756362042     -1.36927954355467
  N   3.03037913951563      1.68099022520897     -0.18274566154952
  C   1.84711251148795      1.60716477215205      0.39080734548389
  N   1.52172000566254      2.65819079455309      1.15773562737729
  C   0.83609831216976      0.57483082060990      0.21025677465353
  H   -4.38053600679411      2.70332573631185     -0.46769126327205
  H   -3.20494258762884      3.90976930367261     -0.50004148467849
  H   -0.65410461312118      3.21527993116087     -0.05111968056383
  H   0.96766871685187     -3.39009943961630     -0.81827629834059
  H   -0.42066233368403     -3.71053050611220     -0.01900074098180
  H   3.64741813130932     -2.84805526862230      1.09635868207294
  H   1.94015096506902     -3.07241700198428      1.14455774348770
  H   4.59824424143544     -1.24357980608332     -0.08690855548513
  H   5.54079859429566      0.31390279897866     -1.56694110385658
  H   5.06745471385366      1.95765483189532     -1.44340149993040
  H   2.14888485572422      3.44116438606196      1.19904031512528
  H   0.60531839382092      2.73055727962019      1.56305588857735
