28
Coordinates from ORCA-job ./opt_b97-3c_parallel
  N   -5.45182970592362     -0.79361831724316     -0.07500137230794
  C   -4.40549446736158     -0.28345840222530     -0.09953705408580
  C   -3.13896094438823      0.31076267462336     -0.12294825359742
  C   -2.84514126509334      1.68393885244985     -0.33840703195635
  C   -1.47938355439057      1.88756452838728     -0.27553806497230
  C   -0.84483307852914      0.62808494070084     -0.03737428155605
  C   -1.91571213193993     -0.35895455666141      0.04357115905235
  C   -1.62623134849441     -1.70402124470244      0.24493197914568
  C   -0.31748046281613     -2.10254182433675      0.30167034620242
  C   0.76362996208332     -1.19002434969874      0.19094550817495
  C   2.03203682479836     -1.81180900840251      0.14240260317054
  N   3.24114946007804     -1.39983237389436     -0.14035200829104
  C   3.61518492239170     -0.11815555303835     -0.26137673251719
  N   4.90720543043354      0.02553769005789     -0.66631770051107
  C   2.90630849487819      1.03006188733548      0.09576957130654
  C   1.54509047717862      1.19812061647979      0.31055254468193
  N   1.15342886533507      2.43320383565355      0.70722382267832
  C   0.49119141597516      0.22156276945042      0.09937107458248
  H   -3.58595021294515      2.44205774030659     -0.53845337432769
  H   -1.00002222263113      2.82314507903588     -0.50627139013527
  H   -2.42849778690791     -2.42538029705248      0.32986506216317
  H   -0.08377366233255     -3.15291555081955      0.40556920881662
  H   1.98977570926311     -2.88657261200002      0.29903808571769
  H   5.36899059911029     -0.81346121149354     -0.97040803908793
  H   5.21665386258358      0.89103592780287     -1.06759789072102
  H   3.50596998417975      1.92822489012792      0.20019797505563
  H   0.22042433655889      2.54737862087282      1.06709531848104
  H   1.84629221130599      3.07215883798403      1.05232614723770
