30
Coordinates from ORCA-job ./opt_b97-3c_parallel
  N   -4.12712117097957     -1.92370178100395      0.54226763105848
  C   -2.97694496651171     -1.27426133292239      0.17875385526454
  C   -3.11538578505579      0.03865765720941     -0.29023264746239
  C   -2.13330644365129      1.00247663980479     -0.44205431806870
  N   -2.51635676169037      2.16135493864485     -1.03763078492387
  C   -0.73986365272583      0.87933990089610     -0.04769729079429
  C   0.02825153501107      2.03928156280851      0.23050897946219
  N   -0.58841159520884      3.30159119262979      0.42434175573286
  N   1.35528499062770      2.08863268047390      0.32591671661083
  C   2.01475382677214      0.95378998611612      0.13955112500985
  N   3.34827729909269      0.77114400735414      0.16450709106264
  C   3.46321025674030     -0.56289089948715     -0.00198938548076
  N   4.67776080560510     -1.16197758363632     -0.09479869875825
  N   2.31452052756802     -1.27739033219190     -0.12900786740368
  C   1.35354670293893     -0.31786584606844     -0.04907374767380
  C   -0.03801402207027     -0.38477543140213     -0.09034641407637
  C   -0.66081488860679     -1.70076338248831     -0.11344337869892
  N   0.13704203531816     -2.73583232975874     -0.39354305483104
  N   -1.90205286078663     -2.04399797970374      0.22207014667956
  H   -3.99191093650831     -2.82357965468383      0.96929702876561
  H   -4.89491242475433     -1.37977008406268      0.89127669017788
  H   -4.12399435041701      0.33594610007548     -0.55402422699013
  H   -1.91997635201347      2.97270392196913     -0.92342858783333
  H   -3.49756826439493      2.33033987732542     -1.16597202333476
  H   -1.27428624007195      3.28848911706514      1.16750248632950
  H   0.14120886028176      3.96189624709023      0.65514133289781
  H   5.44927088083965     -0.62579656266111      0.26074998246681
  H   4.70342223410401     -2.14769008189984      0.09575817511545
  H   -0.25210293843013     -3.65088775619990     -0.24580344619812
  H   1.15432042237768     -2.58695314499254     -0.41763780940547
