28
Coordinates from ORCA-job ./opt_b97-3c_parallel
  N   4.22253358331687     -1.97925450550368      0.12254765145052
  C   3.22121912333537     -1.39176748363760      0.06041720575602
  C   1.98586470176672     -0.71003963682423     -0.00660586011179
  C   0.79832854999758     -1.44555705660938      0.05362242742719
  N   0.84362952036195     -2.83703467079975      0.10160998211026
  C   -0.47393549012137     -0.78146739846111      0.00188687736819
  C   -1.60227587526776     -1.58590009025302     -0.16726272351441
  C   -2.96053541913320     -1.33200243937806     -0.18349949971821
  C   -3.63929737575604     -0.13076805692723      0.02514046266129
  N   -4.99773980628788     -0.15802323714030      0.07164685091514
  C   -3.02096454763016      1.13170923793740      0.20040626325131
  C   -1.69807236591371      1.44844469371757      0.17368842276436
  C   -0.51897485210869      0.67255206813122      0.04734200872868
  C   0.68044434976036      1.37594657597131     -0.01838528300974
  N   0.85089594952691      2.73072098299353     -0.02046146756509
  C   2.17821708040894      2.90611459595487     -0.09127159252462
  C   2.91454312885567      1.69788563486954     -0.13294739473973
  C   1.95752788497706      0.69736418457189     -0.08606180955472
  H   1.78135732168467     -3.20683559466269      0.13912266293372
  H   0.28291508142431     -3.24766746192726      0.83107907265039
  H   -1.37076464511824     -2.62470258366977     -0.36310672779082
  H   -3.58690292332608     -2.19787230577063     -0.36704203619518
  H   -5.51493268736023      0.70006771295309      0.01804460346124
  H   -5.49004224302689     -0.98540454754105     -0.21132289557381
  H   -3.69987931685612      1.96631034665465      0.33823033757727
  H   -1.47362016234514      2.50469906533216      0.26263621588519
  H   2.59248716989811      3.90491389374540     -0.11063145424327
  H   3.98522687823657      1.58498853747352     -0.17931246199971
