32
Coordinates from ORCA-job ./opt_b97-3c_parallel
  N   3.10141582131876     -2.23861377446575     -1.47265102570225
  C   2.59858425466494     -1.37145827761840     -0.88013472474352
  C   2.10174801076185     -0.21152423993909     -0.24473915386129
  C   3.08308077781427      0.79433689215384     -0.04969023164443
  N   4.37120556550485      0.49244727899529     -0.32236753137948
  C   2.83006119564143      2.08476892986291      0.44437776826463
  C   1.62039108858845      2.70532048439062      0.57907730366166
  C   0.30866002332328      2.26702354578089      0.34057399361315
  C   -0.63323220037816      3.30985536857079      0.51975365455480
  N   -1.34207151657649      4.21656016337574      0.68308570207215
  C   -0.16505421058534      0.95417363692188      0.06478335896315
  C   0.71234923104354     -0.21833635829126      0.10358365945478
  C   0.13452873334426     -1.47903454828212      0.37564153325751
  C   0.91474694517638     -2.55770055217651      0.83645567771128
  N   1.43032510616377     -3.49628389667587      1.29184679144350
  C   -1.26990799923355     -1.71874979349286      0.28742885684076
  N   -1.77799433875604     -2.95022518240029      0.54717589766715
  C   -2.05738376220252     -0.65464537971991     -0.11245221071640
  C   -3.42668911653228     -0.53409157575402     -0.43536934868058
  N   -4.36002841675539     -1.52225894364629     -0.52420365112396
  N   -3.76762642830743      0.75941801808949     -0.66207009708220
  C   -2.65494198546259      1.48430574682975     -0.49756957744722
  C   -1.52486655149278      0.67975246745966     -0.17036940657599
  H   4.62496171024642     -0.39743821618336     -0.71539432786785
  H   5.06678810549148      1.21377188455087     -0.32365495177259
  H   3.70174459407367      2.68514225546308      0.67087526943167
  H   1.68037148190761      3.73564878689587      0.90531031860003
  H   -2.72966903563327     -2.99730697728561      0.86938275731928
  H   -1.16025954067615     -3.63263242236313      0.95808123245242
  H   -5.23280193711140     -1.21387956222111     -0.92445841769387
  H   -4.04762396000872     -2.41139402155461     -0.88055013872502
  H   -2.68712136745949      2.54767878462807     -0.64973229378516
