31
Coordinates from ORCA-job ./opt_b97-3c_parallel
  N   5.75576773622330      2.44963093281059      0.07621909306516
  C   4.80280294154345      1.78474237348812      0.05502859637787
  C   3.65062073946705      0.97993104682780      0.02866428546090
  C   3.63633612824624     -0.43395122742018     -0.00239204807974
  C   2.30073007215457     -0.83442569250906     -0.01497682002811
  C   1.70352767208633     -2.10334647623491     -0.03702644413893
  N   2.42865435558411     -3.23487383993007     -0.06418541535485
  C   0.29895887818137     -2.18542752797503     -0.02805866165377
  C   -0.54243266855624     -1.08901112541218     -0.00694617602897
  C   -1.95497456870188     -1.33655187216240      0.02599702196811
  C   -2.35815893306032     -2.70097039634342      0.05860450495956
  N   -2.69385641710813     -3.81246633828866      0.08520470454787
  C   -3.03020563536632     -0.46217873607593      0.03302175806086
  C   -3.10044464300816      0.92584870286192      0.00126066809380
  C   -4.39264965243921      1.49932075935204      0.01916246884335
  N   -5.42471660067604      2.03489431022740      0.03481508594468
  C   -2.00607478071547      1.82630624121689     -0.04971249200020
  N   -2.28071672448413      3.15204717147249     -0.11812008168223
  C   -0.65285895921000      1.46554215376002     -0.05230095262128
  C   0.04313772896441      0.26734563211889     -0.01217192680378
  C   1.46383268975863      0.33819226488389      0.00435590280459
  C   2.32684318598035      1.44943220393063      0.03283614448741
  H   4.51838338947296     -1.05385366663936     -0.00939469138613
  H   3.43036707084118     -3.21163352481966     -0.05391496872634
  H   1.98625989978795     -4.13500708479904     -0.06075440300897
  H   -0.13963286322052     -3.17244993281728     -0.03323385669290
  H   -3.99549543041327     -0.94816536017512      0.06866155541967
  H   -3.22340424240568      3.48958934722213     -0.03558496840914
  H   -1.54476789716694      3.82827933019251     -0.04548814327216
  H   -0.00190260662156      2.32878943382846     -0.09223341120832
  H   2.06471773396216      2.49362057110861      0.06317432126198
