26
Coordinates from ORCA-job ./opt_b97-3c_parallel
  N   1.82994709764696     -3.37863232350746     -0.41694673124237
  C   2.02525258815165     -2.23124134893405     -0.33958529060352
  C   2.23063843575280     -0.85592812940340     -0.21273220990391
  C   3.47281858865236     -0.20801402014141     -0.39465352656818
  C   3.31836607419257      1.17625538957763     -0.32994692890645
  C   1.96367252971382      1.44714668021289     -0.13510249075975
  N   1.36821903058499      2.64488196575756     -0.00169850541797
  C   0.06495127846572      2.64485103005102      0.16208515123090
  C   -0.75343647586339      1.48423458032793      0.22176854112609
  C   -2.14704384910153      1.70692862547255      0.27227246317640
  N   -3.16085781806031      0.92495688041096      0.00617925343273
  C   -3.01648819633343     -0.39593190089204     -0.25236925892184
  N   -3.99619593304476     -0.92051377138972     -1.00403076944894
  N   -2.12769649678041     -1.25381714390900      0.23365192176652
  C   -0.89534934457373     -0.97119876983183      0.60003993593511
  N   -0.29810382341703     -1.85020155829732      1.40343379751285
  C   -0.11960432913281      0.20438492059613      0.19412283763142
  C   1.24415817712200      0.16785779122030     -0.04185259178955
  H   4.39736634925832     -0.73273742361974     -0.57826118906692
  H   4.09452066711022      1.91670411980821     -0.42647993707464
  H   -0.41744897191710      3.61464125631817      0.22829369881983
  H   -2.43712644841155      2.73354605274606      0.48304613453810
  H   -4.77958063031748     -0.34508473332982     -1.25202444959825
  H   -4.03716452640637     -1.91276189290512     -1.14642974744913
  H   0.68504517626616     -1.77965922836612      1.59415975540241
  H   -0.73087845245783     -2.74786669417239      1.53919141957900
