26
Coordinates from ORCA-job ./opt_b97-3c_parallel
  N   2.25202318891035     -2.45735028103300     -0.07573496679185
  C   1.26637882479797     -1.50753858365401     -0.02618969423645
  C   -0.08760641566465     -1.88052859440992     -0.01436667407819
  C   -1.14656578697944     -0.97470833675204      0.01334683948768
  C   -2.45208216530632     -1.51887340627444      0.06467188185177
  C   -3.67977346801174     -0.89990448342816      0.08140396604267
  C   -3.96769972428410      0.45899528189359      0.02848764518936
  C   -3.04369466220057      1.49392205933840     -0.05917272668029
  N   -1.72522615367150      1.50543611687098     -0.06946505055634
  C   -0.85709023113104      0.47931692763994     -0.00947310640523
  C   0.50078378742398      0.82025066059568      0.00637629061647
  C   1.16123242171747      2.06900969861363     -0.04096465411479
  N   2.49526350136954      1.93247667421522     -0.00498031218378
  C   2.75051100956898      0.59761954606336      0.06561072029068
  N   4.04972656418121      0.12681614980212      0.11389370266291
  C   1.56376174681249     -0.15104730704769      0.05137894065676
  H   3.13127365754615     -2.15604215692074     -0.46505565339112
  H   1.97474196818928     -3.37418188282149     -0.38288131203817
  H   -0.32641719938920     -2.93732181980411     -0.03584518581662
  H   -2.48195101792806     -2.60185571220617      0.10177671194741
  H   -4.53401569423402     -1.56552773321812      0.13620072420542
  H   -5.01048898665818      0.75006060599902      0.03877457121558
  H   -3.47389982025462      2.49159416991323     -0.12575865271207
  H   0.69844559414276      3.04076797058974     -0.09340780681827
  H   4.21321851232114     -0.56834338304990      0.82735693881088
  H   4.70773818943215      0.88797225088494      0.19981106064564
