27
Coordinates from ORCA-job ./opt_b97-3c_parallel
  N   5.19963991564360      1.79700545335203      0.00017127038258
  C   4.18259139855439      1.23465009639674      0.00015563232230
  C   2.98789604274296      0.47095031444915     -0.00009404455176
  C   1.79818844185833      1.19595313316763      0.00071539999417
  C   0.45191883878483      0.83510473381338      0.00076741663664
  C   -0.48174591359228      1.90700321451658      0.00174035797081
  C   -1.84074886418203      1.71213985110886      0.00190197684398
  C   -2.33806257029522      0.40839576330791      0.00108899826970
  C   -3.61840288663310     -0.16508747373950      0.00096970890834
  C   -4.84840036233523      0.50107484141287      0.00168819694686
  N   -5.86684431823944      1.06368633411783      0.00228174153527
  C   -3.39136076735073     -1.57271666772311     -0.00006856518581
  N   -2.09953901939252     -1.89851201017730     -0.00057553016496
  C   -1.42584960974116     -0.70991140304928      0.00010565125130
  C   -0.03989734376944     -0.52711411053428     -0.00008393977493
  C   0.76214414615455     -1.69017567011297     -0.00109639419394
  C   2.11039419208347     -1.88123779166076     -0.00155797832752
  C   3.16426118276983     -0.93951725873435     -0.00114447991518
  N   4.41799852135879     -1.42780682894713     -0.00178791032355
  H   1.96189865145696      2.26648101813328      0.00144541476708
  H   -0.09246656827743      2.91578867264795      0.00237190753721
  H   -2.51425984553063      2.55911740460996      0.00265159817652
  H   -4.15987746465868     -2.33152893551252     -0.00042702345920
  H   0.16906204427345     -2.59681408668218     -0.00159698111771
  H   2.43113196524696     -2.91674245017331     -0.00236995368400
  H   5.22010640449528     -0.82146841447826     -0.00162211489518
  H   4.58275037687444     -2.41673514630920     -0.00261213044902
