26
Coordinates from ORCA-job ./opt_b97-3c_parallel
  N   -4.86807503681352     -1.28759874207004     -0.03256333994193
  C   -3.79188498468506     -0.84422980301299     -0.01369541582185
  C   -2.54515148068311     -0.21963715268619      0.00109087410690
  C   -2.34096910794442      1.19708583582744     -0.00853907136769
  N   -3.31690642263606      2.12285241009964      0.02494838212055
  N   -1.03908779358085      1.53240084653351     -0.01232717436646
  C   -0.34198698706525      0.35558601025811     -0.00419922914309
  C   -1.25730514552702     -0.77104989704759      0.00210304930262
  N   -0.87155430989571     -2.05240777032490      0.00558028637687
  C   0.42911965362825     -2.25240786977636      0.00499221737096
  C   1.43936248102418     -1.25073325215002      0.00191099761137
  C   2.74859253636179     -1.74330861699684      0.00280982764025
  C   3.95059028742258     -1.07360699025117      0.00009968046643
  C   4.14225883341342      0.30611555413718     -0.00313731299412
  N   3.29962177383373      1.31559004067288     -0.00404673942073
  C   1.95430096778767      1.27065510087321     -0.00385695829177
  N   1.40242997976693      2.47918773423513     -0.00419795596221
  C   1.03352791275969      0.13765955695968     -0.00313122038472
  H   -3.07456068446709      3.07409971054808     -0.18486692607432
  H   -4.26098245526603      1.83776849579352     -0.16567319602704
  H   0.75079152883520     -3.28821526865809      0.00743026680271
  H   2.81854702854201     -2.82522434908177      0.00611232214912
  H   4.85182871018097     -1.67248167679106      0.00097565015767
  H   5.18101205307238      0.62835144727844     -0.00468760329293
  H   0.37848567740236      2.57571787893472     -0.00301193438593
  H   2.03046692003296      3.26512731149549     -0.00163310843064
