31
Coordinates from ORCA-job ./opt_b97-3c_parallel
  N   -3.36644672315658      3.45752928503822      0.64796288349668
  C   -2.57203681320752      2.63148911617045      0.45668760643524
  C   -1.61941927325297      1.61374079007916      0.21734152048132
  C   -0.27058265143696      1.93477107158790      0.09576669914530
  C   0.73349469588919      0.97818467324382     -0.09758962370636
  C   2.06311064785049      1.48604543795564     -0.35941252543853
  N   2.14255976781567      2.79492878510958     -0.76763266468945
  C   3.25926290080638      0.83387754869112     -0.15690692317099
  C   3.44417307575332     -0.47553383144262      0.31662351489757
  N   4.69412125163879     -0.79522327616957      0.77345746222206
  N   2.61307541272009     -1.49944539978019      0.27387184967273
  C   1.34568827716321     -1.51035380072551     -0.13690718038330
  N   0.89627555865168     -2.71840266971948     -0.48480264293052
  C   0.37857270604936     -0.41871339191402     -0.12641278812395
  C   -0.98973398033443     -0.73643856129133     -0.09887236745735
  N   -1.57618472282121     -1.96040518514976     -0.19170511007373
  C   -2.91064894838704     -1.74786451599159     -0.06214390564824
  N   -3.77906659115902     -2.79642185974784     -0.17426524809931
  C   -3.23391086416537     -0.39135014179926      0.11512552132309
  C   -2.01556355069813      0.27634908258457      0.09083772211192
  H   0.00537103264691      2.96987783664446      0.21716566626331
  H   1.37959132039854      3.15266178707766     -1.31356634977595
  H   3.04421328672675      3.12012205663962     -1.06780710972977
  H   4.16433983926503      1.40035766456813     -0.34332337775246
  H   5.25526788686157     -0.07040154951899      1.18240556015923
  H   4.77862590757817     -1.70714935557399      1.18809272246175
  H   1.51975325705023     -3.48805436672423     -0.30957033023015
  H   -0.12543859739514     -2.85645568375643     -0.52490407464729
  H   -3.37624560751326     -3.70224271623507     -0.00400285255770
  H   -4.68713074876623     -2.66962728373065      0.23637131202757
  H   -4.21444557787171      0.03838037758210      0.23368223381679
