32
Coordinates from ORCA-job ./opt_b97-3c_parallel
  N   -4.90756689082034     -2.24965953838505     -0.03903558115375
  C   -4.10809165185595     -1.40301236650741     -0.02569625348878
  C   -3.16801347597940     -0.35102614436054     -0.01003552542705
  C   -3.74817956877290      0.93632980976140     -0.00634139244569
  N   -5.09554676391911      1.03043021451497     -0.01921800470204
  C   -3.04874053574724      2.15807063010513      0.00971327451469
  C   -1.70707322147952      2.36825734397046      0.01343302511428
  C   -0.58722770420158      1.50550935247535      0.00668328238066
  C   0.63678603336682      2.19845366087987      0.00395836879685
  C   1.87518805317358      1.57826301503317     -0.00146334697484
  C   3.05125441599760      2.36804732624389     -0.00391452335970
  N   3.99367452932776      3.04483127200092     -0.00575166707602
  C   1.91089244395850      0.18067452964054     -0.00427438414297
  C   2.94209375800702     -0.76794566689181     -0.01033847821576
  C   4.32924413867766     -0.61675359268035     -0.03680225865817
  N   5.49292294971331     -0.60274735610935     -0.06523483383998
  C   2.28249933770247     -2.03254334176456     -0.01129576130724
  N   2.88974141995628     -3.23269071615689      0.02225651081445
  N   0.94473272314003     -1.90638085744814     -0.00563444401988
  C   0.66905972170802     -0.56645463583152     -0.00036533641802
  C   -0.59389104745590      0.06027053775768      0.00417084658327
  C   -1.79563328246793     -0.76523143850860      0.01226690012728
  N   -1.59897053362709     -2.08111668989542      0.03496755793270
  H   -5.68739394468606      0.21886638999156     -0.02781228762461
  H   -5.53942086231442      1.92840254974921     -0.02073454802860
  H   -3.66791270802010      3.04645160913306      0.01570825073939
  H   -1.43517406551135      3.41626714798678      0.02214446073609
  H   0.61187018521439      3.27750927646808      0.00662737846307
  H   2.34405207440345     -4.04834406885737     -0.18801256136280
  H   3.87488349180393     -3.27942366114298     -0.16933917262725
  H   -2.37799334386635     -2.71756916904661      0.03857169948295
  H   -0.62567011612547     -2.43361882842554      0.03102797828748
