29
Coordinates from ORCA-job ./opt_b97-3c_parallel
  N   -3.18830142796331      3.48088663760732      0.05909359482378
  C   -2.65118184028918      2.44809637033747      0.05823645414504
  C   -2.06716842648972      1.16291009121900      0.04104444851759
  C   -0.68681325178354      1.07555104328177      0.16934529346639
  C   0.19133574372796      0.00053637298303      0.08037027392302
  C   -0.19229237085051     -1.39335539182826     -0.05129785125495
  C   0.79058749390980     -2.35357157507200     -0.29601035487949
  C   2.14785894298249     -2.05464503734650     -0.39469896354240
  C   2.57254990340048     -0.76114335125941     -0.18354614412142
  N   3.83128927493994     -0.27591036156432     -0.19529499263530
  C   3.68884425666220      1.04454692652570      0.04893885184698
  N   4.78044940673370      1.85431329617582      0.06925918608301
  C   2.33714219347025      1.45104417936365      0.21644047351954
  C   1.58653781903771      0.29421256397790      0.07873294923692
  C   -1.53703070116224     -1.84208220707989      0.19370256745702
  N   -1.69869779459532     -3.13333638859312      0.58235808281073
  N   -2.69554742178759     -1.22013911497138      0.02927226323463
  C   -2.95298949970305      0.05883131887069     -0.17209413382346
  N   -4.21643631161048      0.32626142172440     -0.56267638244514
  H   -0.20616849440571      2.03581749773700      0.29627725425333
  H   0.48812671194975     -3.37578603707561     -0.47324036463155
  H   2.86504172071554     -2.83019478624174     -0.62678400546849
  H   4.70914556759434      2.73247908553980      0.55028659314438
  H   5.66451770334298      1.38326387088068      0.15914971725527
  H   2.00257360140219      2.45840837635784      0.40663595340730
  H   -2.63822358832577     -3.42173743879883      0.78977425949134
  H   -0.95044415496323     -3.61452034643221      1.04377012839397
  H   -4.87708714309692     -0.42881432995340     -0.56491166438537
  H   -4.55671921514313      1.26944196343532     -0.62010235611937
