25
Coordinates from ORCA-job ./opt_b97-3c_parallel
  N   -3.12955765944760     -2.62696548798972      0.00023857077613
  C   -2.46997747465915     -1.66856979402067      0.00007021512187
  C   -1.77215378839778     -0.43700225193675     -0.00012379525251
  C   -2.64369550965475      0.69439684626096     -0.00004888147737
  N   -3.97767415566266      0.46926905753235      0.00011786867295
  C   -2.23154376618769      2.03068906392335     -0.00018479577963
  C   -0.94719125968388      2.53671966456153     -0.00033406974276
  N   0.24459104004865      1.97644911323231     -0.00034905428336
  C   0.55919291529716      0.67439440939512     -0.00033186461836
  C   -0.35370444454232     -0.50568333452572     -0.00035900758117
  C   0.22654754684597     -1.79007091770030     -0.00054505685482
  C   1.58999117931038     -2.01692470705235     -0.00058230188137
  C   2.46100361606783     -0.94204237247359     -0.00043858191546
  C   3.85779840418223     -0.79002994163635     -0.00044142842267
  N   4.21491402055800      0.52006243544539     -0.00031551298847
  C   3.07385558743404      1.22923948124007     -0.00024806112291
  C   1.93095266555269      0.38801965990133     -0.00030183440343
  H   -4.36155383086400     -0.45873510085576      0.00033660723761
  H   -4.61898420286460      1.23856268809164      0.00035568076539
  H   -3.02110816947579      2.77273476924202     -0.00016942551834
  H   -0.90020990187613      3.62372500462728     -0.00043586806766
  H   -0.42793453492238     -2.64843766333034     -0.00063121346631
  H   1.95579189155601     -3.03614750715285     -0.00072631780709
  H   4.60751953299120     -1.56744993477545     -0.00052445251130
  H   3.08309575149454      2.30736797079649     -0.00015934667893
