27
Coordinates from ORCA-job ./opt_b97-3c_parallel
  N   2.70898221558734      3.32453941262307     -0.22242097768406
  C   2.21022331687065      2.27337952592247     -0.18834864874765
  C   1.78986077084130      0.92633276845928     -0.11112126113671
  C   2.83208704011378     -0.03199610733726      0.16441508799813
  N   4.03858887534921      0.46665619459413      0.50172738156359
  N   2.78904084112866     -1.34919877984686      0.11217646409648
  C   1.69704966882592     -2.08438892636862     -0.15168761024595
  N   1.99392585919714     -3.36900244862951     -0.47006560048021
  N   0.39570744387113     -1.83265815719303     -0.10944601757225
  C   -0.20786268621264     -0.64427832016961     -0.05213428063951
  C   0.40658271840267      0.69240978282501     -0.20091936810441
  N   -0.33305159925800      1.81064385686963     -0.37866367616965
  C   -1.65532973925286      1.76886236080859     -0.29131581013659
  C   -2.33541992841302      0.60616268065165      0.00661284073595
  C   -3.69553268135645      0.22054111726301      0.16154263075482
  N   -4.79841304639679      0.98247801266442      0.12129178214679
  N   -3.81341190102628     -1.13050335564712      0.34340972050527
  C   -2.57240441358395     -1.62176105177657      0.30155365694686
  C   -1.59616972949005     -0.61201035909360      0.10840688719078
  H   4.22836978966170      1.45259652651340      0.47705182420652
  H   4.80168292440001     -0.18034536305332      0.57600343625632
  H   2.93437120503764     -3.68899212298550     -0.33307250752225
  H   1.24432023562683     -4.03511480917686     -0.48456764487871
  H   -2.16466825599683      2.71196889624704     -0.46847185239659
  H   -5.67459863666704      0.55220157771199      0.35939621316304
  H   -4.73928113869800      1.98227705621459      0.16270401157686
  H   -2.39241068496200     -2.67952428729040      0.41379888027317
