29
Coordinates from ORCA-job ./opt_b97-3c_parallel
  N   3.10030992263272     -3.56311918309959      0.36688825403449
  C   2.35491256094426     -2.68136023309620      0.23798890465321
  C   1.36062710169645     -1.69130856875688      0.08752392646833
  C   0.00298821287610     -2.08272550957877      0.02939811013452
  N   -0.30374752209939     -3.42208140906738      0.05870924582785
  C   -1.02097319338961     -1.10900361183814     -0.09898337179717
  C   -2.29621618458070     -1.57230883364028     -0.46348764833189
  N   -3.48965194765832     -1.02167673816089     -0.44569475170385
  C   -3.72745438450118      0.23442047041040     -0.02037702864220
  N   -4.97366358102583      0.44327773619821      0.42006272531483
  N   -2.96277271151924      1.33918557800077     -0.05921621867589
  C   -1.65168284577341      1.34004580525036     -0.13279527120917
  C   -0.68827727696721      0.31433367090555     -0.05831456505150
  C   0.66353872224798      0.68048902971517     -0.02951549438756
  C   1.38136900940651      1.89716558318283     -0.01371516180115
  C   0.94744667839176      3.21883320999273     -0.02596163305879
  N   0.64700939660703      4.34616116638793     -0.03103819197410
  C   2.75943389726340      1.51516903483128      0.04312369088514
  N   3.80177707141106      2.35100352345473      0.05822949036100
  N   2.93882074101068      0.17465434493118      0.06873205039636
  C   1.70431802591681     -0.34057360224091      0.02834710713274
  H   -1.11481547364911     -3.69698885664232      0.58183675061642
  H   0.47414149416529     -4.04773802075581      0.19287978765499
  H   -2.31843674543570     -2.59155970368895     -0.83861017757072
  H   -5.64360011132706     -0.30300273376603      0.38262678910845
  H   -5.26187266135916      1.37602927753790      0.65400264070722
  H   -1.24535500304801      2.33973139432163     -0.23200065114397
  H   4.72564866855542      1.97478414826060      0.16672492901801
  H   3.66881544161589      3.34421891454306      0.10758924613333
