32
Coordinates from ORCA-job ./opt_b97-3c_parallel
  N   -5.75050910535031      0.03632080183491     -0.86711734171243
  C   -4.66073284132733      0.34054188760416     -0.59412128614844
  C   -3.32443627002650      0.61706975473154     -0.28635428563227
  C   -2.75543085992698      1.83315669441348      0.08266615246789
  C   -1.37345049563585      1.64824063834027      0.24785580684271
  C   -0.38302655054275      2.57122965014488      0.50650632675529
  C   0.94794963257486      2.18373910608366      0.41971283754477
  C   1.97045143494113      3.14756342931340      0.57995224638131
  N   2.77614173693759      3.97063772159283      0.72832320677356
  C   1.32618691852625      0.84941343637186      0.06758766482550
  N   2.59533925728192      0.70931223613041     -0.26483710284026
  C   3.28559153918419     -0.36529990787179     -0.63494997054274
  N   4.45684413133377     -0.04672740449356     -1.24878241673740
  C   2.99296100557763     -1.71933522661806     -0.44592629386638
  C   1.82502194474108     -2.26155317592368      0.06034529945239
  N   1.80929450226718     -3.60937307180784      0.25945962276614
  C   0.60580617358115     -1.55349934211245      0.33708887044835
  C   -0.36221786534475     -2.32176982379305      0.99405468482924
  N   -1.14433450838435     -3.01257377379529      1.51902056691713
  C   0.27927685546959     -0.18823233892883      0.08667499659868
  C   -1.04834863578256      0.26035386763255      0.01939438325106
  C   -2.29410703741550     -0.38283646528792     -0.32612100302446
  N   -2.53413210951581     -1.62593207354459     -0.76249276527271
  H   -3.28943692410639      2.76175350852654      0.20223806784305
  H   -0.62585367203187      3.60492345583915      0.70912329371129
  H   5.16350211569753     -0.74131665604356     -1.40299015668811
  H   4.75105882354350      0.91169246122587     -1.17824561837981
  H   3.77521364227585     -2.42437653515860     -0.70080276289618
  H   1.05058039368088     -4.02977857207313      0.76745396706329
  H   2.68613781315476     -4.09323813737682      0.31437308525179
  H   -3.49477094323543     -1.85513227452852     -0.96755111698057
  H   -1.98317289554246     -2.40037382462780     -0.43129339220173
