31
Coordinates from ORCA-job ./opt_b97-3c_parallel
  N   4.38560108121864     -2.38172759879435      0.64409358355491
  C   3.60578467615920     -1.55040663572592      0.40588521521271
  C   2.69865331749696     -0.51004107839784      0.11391860249647
  C   3.30002333371410      0.74459038973801     -0.10307222718222
  N   4.64932644911717      0.83399919425383     -0.05947887796732
  C   2.60877632118081      1.93418841191371     -0.40754893737343
  C   1.27383078761579      2.17710353597121     -0.32816177509497
  C   0.15663784822733      1.36388329268246     -0.03894175654122
  C   -1.06990738945115      2.08310740679777      0.15859032728031
  N   -1.02793136891791      3.47397625379000      0.30361608634440
  C   -2.29294415623927      1.43787392736854      0.14982876816577
  C   -2.33379461048610      0.06772294663884     -0.01854131481297
  C   -3.38652649581910     -0.87678008752555     -0.04723119686580
  C   -4.75570885409072     -0.60238526455891      0.02684175180850
  N   -5.88934126530603     -0.34755439146122      0.09245665881293
  C   -2.75628254759951     -2.13088440407299     -0.14798392032364
  N   -1.42005982275932     -2.03488574180511     -0.18184170036039
  C   -1.11880353849035     -0.69681503826262     -0.10844620633039
  C   0.14373686353278     -0.07706470614683     -0.08342849842152
  C   1.33306691331319     -0.91628283085425     -0.06149219909841
  N   1.12302679998653     -2.22697675411666     -0.12970618334469
  H   5.22104782252099      0.04455367136022      0.18393474238521
  H   5.09223282879855      1.73234915969854     -0.08189287064586
  H   3.23146540141385      2.77297063586201     -0.69406459671450
  H   1.00304019060556      3.20047721503338     -0.55516156570452
  H   -0.40633522360689      3.80092480581790      1.02624989674370
  H   -1.94106209412173      3.87956203997224      0.42995893935160
  H   -3.20793443625890      1.99887971585620      0.29819784423174
  H   -3.24562345354410     -3.09118721815739     -0.19908067968723
  H   0.13873417486242     -2.56797158414451     -0.17053291027063
  H   1.89414538152629     -2.87178841462892     -0.08756495064935
