32
Coordinates from ORCA-job ./opt_b97-3c_parallel
  N   3.82435303512499      0.88281577506350      1.37959141882029
  C   2.97368157226862      0.31640929114090      0.82209438202117
  C   1.99721551225071     -0.52450011835988      0.24042158728281
  C   2.39080214289033     -1.88743001034163      0.19467863960021
  N   3.64922406324626     -2.20141133536126      0.57375768251582
  C   1.59680813004369     -2.95631428383913     -0.26158482303571
  C   0.26731753738830     -2.94705014287381     -0.56397000082171
  C   -0.69706132170509     -1.93049089147581     -0.48233480045714
  C   -1.95204682081697     -2.32239000039017     -0.98692612129691
  N   -2.98815364241820     -2.66661789697832     -1.39515408301848
  C   -0.54289557160862     -0.56204691899726     -0.10108392932119
  C   0.76393396025532      0.09810633422888     -0.13241752931319
  C   0.79402153641656      1.48049191618455     -0.41920191864460
  C   1.96250095663217      2.11206555740596     -0.88771120557941
  N   2.82869711666299      2.73769600611321     -1.34855847161090
  C   -0.35989701518176      2.31381368877553     -0.29606793010065
  N   -0.26473395901623      3.63355788573101     -0.53327531811801
  C   -1.53384099566467      1.69902870246980      0.12760756384650
  C   -2.76427272457014      2.19809600109423      0.57785510929430
  N   -3.60519756901531      1.22405569260774      0.94014986969996
  C   -2.96977621245946      0.04586142855627      0.70321848651249
  N   -3.57633362470692     -1.08929409939251      1.08930093514948
  C   -1.63048609510494      0.26594650609025      0.19254455091985
  H   3.92386298845030     -3.16115407545570      0.65871956925141
  H   4.27493722886168     -1.50365508854320      0.93759252679089
  H   2.10355973662216     -3.90682048453561     -0.36827463211995
  H   -0.12190780115967     -3.89149808004400     -0.92254383923947
  H   0.59774924179779      4.03209314223854     -0.86210527113423
  H   -1.08738157216412      4.20270650233385     -0.58353711565784
  H   -3.06301785722957      3.23236296639676      0.67610858173754
  H   -3.42258612428028     -1.94107838836767      0.57151228666338
  H   -4.52310428601008     -0.95083694427523      1.40618159196350
