26
Coordinates from ORCA-job ./opt_b97-3c_parallel
  N   -5.13505188504786      2.67324868280837      0.00097589057621
  C   -4.15232128935507      2.05610182651774      0.00056567642643
  C   -2.93961938820299      1.31465409491837      0.00019709790195
  C   -1.74810338476125      2.06292372024328      0.00003456855201
  C   -0.45450558326028      1.61880142860675     -0.00013430834161
  C   0.11087715096056      0.32559476226212     -0.00025506279295
  C   -0.63921822833797     -0.93594880947074     -0.00045804336436
  N   -0.03522252696207     -2.13713447505376     -0.00083095238851
  C   1.28895586647473     -2.22677791034959     -0.00098237071745
  C   2.11687954713532     -1.11820512356540     -0.00069053488947
  C   3.50336937141760     -0.96581443283448     -0.00076405860406
  C   3.76904465252392      0.42439537953988     -0.00039051552949
  C   5.05035874437507      1.00764767121637     -0.00045555037256
  N   6.10728818920402      1.48828804603460     -0.00066930229117
  C   2.55741065686480      1.13711587190189     -0.00008502791463
  C   1.50752650711911      0.19935171993161     -0.00028478116925
  C   -2.05631680390347     -1.04245829405968     -0.00018737845602
  C   -2.56553859013032     -2.37623145447237     -0.00016264114145
  N   -3.10905317041610     -3.40105281272747     -0.00012138679153
  C   -3.05517296563364     -0.06745116263704      0.00010862520204
  H   -1.87668653106116      3.13677667796793      0.00009838472187
  H   0.27780901371702      2.41476305296627     -0.00017430746724
  H   1.69454858795602     -3.23266882477694     -0.00132954978946
  H   4.24514314674311     -1.74672893649843     -0.00106662097918
  H   2.48925150856439      2.21190874632066      0.00023551978191
  H   -4.06464520828349     -0.45322902818987      0.00029081533794
