27
Coordinates from ORCA-job ./opt_b97-3c_parallel
  N   5.54830384721288      0.18147176726549      0.00336189673460
  C   4.40572304509530     -0.03840320304200      0.00263368915153
  C   3.01961579444436     -0.22697350467677      0.00177997886364
  C   2.31112040064666     -1.44149064417776      0.00014211345297
  C   0.93789258206373     -1.17428292369507     -0.00030771134605
  C   -0.18469124432251     -2.00345220258998     -0.00257067092338
  N   -0.11313476859523     -3.34288273316164     -0.00428435455850
  C   -1.46960744201259     -1.36628053368556     -0.00269550224528
  C   -2.60112952463460     -2.21204138105959     -0.00418303785798
  N   -3.41276345970853     -3.04375754032074     -0.00571660809537
  C   -1.65418575000085      0.02239311403164     -0.00083828974525
  N   -2.94371827802445      0.41894754306851      0.00052525493014
  C   -3.39441423043990      1.65458372623765      0.00199388723076
  N   -2.81996904109940      2.86244208098108      0.00074697406799
  C   -1.50448789705640      3.05305490613674     -0.00042495177804
  N   -0.45298537561742      2.25371908534481      0.00041718763394
  C   -0.46372327320459      0.89368507383214      0.00055425719151
  C   0.76039688297191      0.25392117970889      0.00106329092694
  C   2.07424525838602      0.83932141015071      0.00221597677185
  N   2.32143827025384      2.14140510246275      0.00343864861451
  H   2.78834898496360     -2.40872182936007     -0.00071906291362
  H   0.76892518590910     -3.81731808363795     -0.00427134185280
  H   -0.94884243390427     -3.90229080651520     -0.00594915120367
  H   -4.47966487002176      1.70530519756475      0.00428224143982
  H   -1.22907799277192      4.10491812375749     -0.00194434633575
  H   3.26182796063096      2.49778842504717      0.00365903663421
  H   1.50854226463614      2.75125178163250      0.00271985801135
