27
Coordinates from ORCA-job ./opt_b97-3c_parallel
  N   4.84509355264560     -1.93655762669075     -0.16212463399839
  C   3.94704535153870     -1.19921561357485     -0.10977672922759
  C   2.83753393749857     -0.34624957453114     -0.04606518511450
  C   2.84458869008821      1.05364897057901     -0.00036903248520
  C   1.52307915930926      1.53037215689759      0.04561871057565
  C   1.20507164543578      2.89485297862509      0.05893562776590
  N   0.96146322126056      4.03306380840818      0.06853637889325
  C   0.64233890121953      0.40293919026101      0.03922793577253
  C   1.48413100347504     -0.76610649065795     -0.03015694988418
  C   0.91855651709756     -2.02492082608448     -0.10379287901130
  C   -0.45386734691321     -2.16082298262235     -0.06494603291928
  C   -1.32295623031614     -1.05714206294313      0.01344265438804
  C   -2.73015994012162     -1.32909967752350      0.13223249202688
  N   -3.10910386164455     -2.57861310774261      0.48393460326637
  C   -3.77244177611293     -0.45973754036188     -0.24187976832968
  C   -3.71391139860384      0.89083899813618     -0.45870362453858
  N   -2.75994246953784      1.75673781051341     -0.10757387946628
  C   -1.52695281752109      1.47267848094450      0.20402355899219
  C   -0.76287618002562      0.27594299001239      0.05035520549520
  H   3.72258475599640      1.67762065631126     -0.00690280233301
  H   1.54858287108111     -2.89965589984429     -0.19855789342520
  H   -0.86058211645854     -3.15390084222024     -0.18140324101907
  H   -4.08265638225603     -2.77565752561243      0.62558315383491
  H   -2.46404257796129     -3.19515017431407      0.94075722276195
  H   -4.74759655537814     -0.91769714898079     -0.37016230032242
  H   -4.60318541002916      1.35900627156906     -0.86796418930070
  H   -0.97577390466616      2.32346582574680      0.58313020350236
