29
Coordinates from ORCA-job ./opt_b97-3c_parallel
  N   5.15454009174491     -1.30331358999892     -0.03095591343154
  C   4.09503061167690     -0.81948543020001     -0.02564941937751
  C   2.87732870674743     -0.13927696768710      0.00232367461022
  C   2.75797889091236      1.27646269274055      0.18860504607119
  N   3.82621365569978      2.10452663809242      0.30860024314456
  C   1.40682903848566      1.64080516512900      0.18133789486250
  C   0.63235619257967      0.46596587373713      0.02303783975188
  C   1.57991175469682     -0.65670192586945     -0.06997707454740
  N   1.22452177424574     -1.93727021704763     -0.19859073289474
  C   -0.06856677235454     -2.18591479660774     -0.19461547948117
  C   -1.10080473366768     -1.21729247779040     -0.11138106807412
  C   -2.38865138805952     -1.77154994018161     -0.02760331277197
  N   -3.58440589015836     -1.27892592022573      0.19796365464296
  C   -3.88039817902543      0.02935942252495      0.21989281328616
  N   -5.18202245101699      0.26599659469713      0.53311064217666
  C   -3.08925597374317      1.12888507680947     -0.13123461017329
  C   -1.71221730426326      1.22137267559558     -0.28610506422760
  N   -1.23088572618818      2.44056423651453     -0.64055321247281
  C   -0.73288430276122      0.17970087362129     -0.07451454481124
  H   4.71491056471765      1.68549100425576      0.52537923729627
  H   3.67979572069962      3.01614416306159      0.70281096427574
  H   1.05968908311744      2.63135592503598      0.42369117263408
  H   -0.35366742938774     -3.23127195151343     -0.24272924912432
  H   -2.39899930867626     -2.85573063528803     -0.10867285669572
  H   -5.47977005747996      1.17454449650926      0.83520086802820
  H   -5.71523013597118     -0.52752814018279      0.84183152766994
  H   -3.63235515782932      2.05775752240106     -0.27028857875745
  H   -1.87761760719867      3.11516686895074     -1.00810833962560
  H   -0.29456784864299      2.48437886441667     -1.01072302298390
