27
Coordinates from ORCA-job ./opt_b97-3c_parallel
  N   5.37017085948525      0.11568951953469     -0.29850980419011
  C   4.24496714836932     -0.14823993552598     -0.16531303351932
  C   2.86266144132049     -0.41365026492765     -0.02140882828118
  C   2.53800741459746     -1.74436578837588      0.27137792889360
  N   1.38862521964232     -2.38219214140599      0.26563914578886
  C   0.20043588525958     -1.82141064138986      0.04810648389587
  C   -0.25086761048898     -0.50554535388160      0.00943696229548
  C   0.57328674572900      0.70299324796430      0.08666034456482
  C   -0.05891570869268      1.93141544003784      0.27615186430455
  C   -1.44248291856609      2.09390685120950      0.33679901873433
  C   -2.26039218077988      1.00732485965582      0.13401458902520
  N   -3.60859288556779      0.96206271760542      0.11545782345436
  C   -3.90229149045791     -0.34081241373398     -0.07411736635068
  N   -5.19135996955143     -0.73919749941069     -0.20577978412922
  C   -2.75110715945559     -1.17431734483596     -0.16871817204382
  C   -1.66697612405610     -0.32165374391219     -0.04559397168307
  C   1.98436835469377      0.70201790897903     -0.15817271358268
  N   2.56889162769202      1.87185992647177     -0.47908703513406
  H   3.39361719159747     -2.37913290202498      0.48323667595531
  H   -0.58338321684826     -2.56376876810315     -0.05061004501213
  H   0.54029590548906      2.81443187491201      0.44485314124645
  H   -1.87019369499462      3.06931411103910      0.52377315353476
  H   -5.88857529759526     -0.07309758307362      0.07914175087580
  H   -5.41619496263283     -1.70396737422692     -0.04548447893943
  H   -2.76101467075958     -2.24113714691683     -0.32205074164012
  H   3.55756555005467      1.91515056863376     -0.65821710728034
  H   2.01438641252020      2.64759228000333     -0.78524346728449
