31
Coordinates from ORCA-job ./opt_b97-3c_parallel
  N   -3.94065682536137      1.81262255308042      0.27032385631469
  C   -3.11785650950940      0.70091051816399      0.11807122232245
  C   -3.76996983040773     -0.51783711374270     -0.13857372367235
  C   -3.17858138481114     -1.75614213480263     -0.23870667876374
  C   -1.85006064108127     -2.13980521432548     -0.15327684480973
  C   -0.66875462497485     -1.39018071945755     -0.02652305980410
  N   0.44892836617119     -2.14096029577179      0.02207265039856
  C   1.65750062648142     -1.57323077704847      0.08086793830938
  N   2.72509620922805     -2.44539110364257      0.14460334828654
  C   1.82877838772122     -0.19713446712924      0.08486489663756
  C   2.96223946242611      0.63670586218574      0.10453702370311
  N   4.27746615274479      0.20445852734929      0.23497934781944
  C   2.53228007270437      1.96107426158485     -0.09405699708858
  C   1.13596955592893      1.97441164342318     -0.20351638791720
  N   0.36536073773151      3.11178086996470     -0.39349495410685
  C   0.65706719799882      0.63701343875386     -0.05648300673710
  C   -0.62535739785650      0.08119110491429     -0.00044688821153
  C   -1.74908730765397      0.91913259467180      0.17817986706367
  H   -4.86069203775714      1.61838823142006      0.62810768092685
  H   -3.51883841066632      2.60060141977088      0.73269727146159
  H   -4.84882268475584     -0.47955096355242     -0.23236288488446
  H   -3.86938284201007     -2.57782030099976     -0.39427588959828
  H   -1.65914543205656     -3.20250135967188     -0.21980369753905
  H   3.55375150699088     -2.13861229911639     -0.34075300911366
  H   2.45496456908774     -3.38842197806778     -0.08871290615279
  H   4.39337448820867     -0.50698469176404      0.94217104960344
  H   4.93002118619403      0.95586821418134      0.39407948933454
  H   3.17320847710587      2.82935970989416     -0.15048885485890
  H   0.89266289194607      3.88622955539779     -0.76681663617011
  H   -0.46185864251720      2.95184712400062     -0.95041725206882
  H   -1.48839966965140      1.93462043613595      0.44732313101569
