27
Coordinates from ORCA-job ./opt_b97-3c_parallel
  N   3.14838203567558     -3.06832667727608      0.44376627184865
  C   2.42431604929612     -2.17298312791742      0.28330488232237
  C   1.68446655192186     -0.98187380946457      0.14297495113039
  C   2.39003098322181      0.25116754863605      0.23817794258393
  N   3.68542204285689      0.25298844807906      0.57231570468038
  C   1.68722368910052      1.42319494036663     -0.07880614058266
  C   2.06677010312161      2.75850567845409     -0.20919760956579
  N   1.01650561913387      3.54370690057808     -0.56301093042340
  C   -0.05633951510779      2.74577554403848     -0.62964250603488
  C   0.27382543909208      1.39135806527153     -0.34664482375661
  C   -0.46786716330945      0.20495208688185     -0.24532552686304
  C   -1.85703660092589      0.18677981143019     -0.01647114697802
  C   -2.51833585625943      1.40686573171377      0.24019331812415
  N   -3.16457206710209      2.34179184624453      0.48839654746859
  C   -2.70791308566082     -0.96863214969185      0.13699966466581
  N   -3.89022858767194     -0.80748808668570      0.75381152258498
  N   -2.50744770146485     -2.19440498119979     -0.34136243590964
  C   -1.35038259718871     -2.64897354582454     -0.78290638526929
  N   -0.11411623673724     -2.24671045795992     -0.59473497036107
  C   0.32650149100518     -1.04887578130962     -0.21252896677116
  H   4.18161665200765     -0.61144293976183      0.71045011866216
  H   4.21820591596315      1.10189270116313      0.56296633042000
  H   3.04450391891026      3.19710685763311     -0.06957435531083
  H   -1.01261144580325      3.14743492629377     -0.91737556069725
  H   -4.53037172811737     -1.58085154060615      0.73315958641703
  H   -4.21637554952293      0.08926017291737      1.06749093508662
  H   -1.42835982863495     -3.58447765910418     -1.32889655317137
