30
Coordinates from ORCA-job ./opt_b97-3c_parallel
  N   5.03408665625174      0.88517717183143     -0.17025377212488
  C   3.90841829771098      0.58447860602173     -0.10058448741671
  C   2.55427161038308      0.22832887948660     -0.02681279101578
  C   1.60298376407191      1.24410372088894     -0.25317043756655
  N   2.07770430651431      2.50265132652676     -0.50784987532334
  C   0.20973466861392      1.12513902920475     -0.17539056127425
  C   -0.62431844129681      0.01855347113340     -0.02709405070866
  C   -0.14018657986975     -1.37683535753934     -0.06755847847395
  C   -1.06429435850083     -2.39340340020196     -0.32686408963818
  C   -2.43240308355806     -2.16609750630855     -0.42251909216894
  C   -2.92850469911731     -0.89871646623790     -0.20999563972952
  C   -4.25514043953442     -0.39280023398568     -0.14997854806113
  C   -4.20203038556258      0.95137146538354      0.16702851365766
  C   -2.83908179855689      1.32891789938888      0.30146181822277
  N   -2.41577397833275      2.58407737148655      0.63694607174545
  C   -2.02361046742096      0.18642092477304      0.04245827465448
  N   1.11495045166049     -1.78834062730879      0.17729808614574
  C   2.24430381542999     -1.13336901604728      0.30304822414504
  N   3.27135961801193     -1.89162594136331      0.78256499554112
  H   1.45211809390603      3.15954823453664     -0.93687174690347
  H   3.04555560418463      2.61207325787101     -0.75847654558599
  H   -0.30411367563214      2.05593751459593     -0.37296238525443
  H   -0.66902858298143     -3.39588180386069     -0.40043893480829
  H   -3.10196373228472     -2.99556127469982     -0.61458219034215
  H   -5.15162613646888     -0.97245989049820     -0.30796882714229
  H   -5.04252963748003      1.61214002516524      0.31510680199426
  H   -3.10961251837724      3.17461091089174      1.06619265227605
  H   -1.51782026105774      2.64408434854071      1.09227508155563
  H   3.12100333642936     -2.88429491698176      0.76851961420636
  H   4.21932093196421     -1.56542064319419      0.71991982349311
