32
Coordinates from ORCA-job ./opt_b97-3c_parallel
  N   -5.61004154830949     -0.66782384724165     -0.24540157242530
  C   -4.45760399078449     -0.50426400311589     -0.16826247457440
  C   -3.07304939938204     -0.30023874440481     -0.07342333486936
  C   -2.61026084519514      1.02994680777915     -0.15640218169847
  N   -3.53341413726764      2.00162197229591     -0.36432331210979
  C   -1.28066222327795      1.47129029942066     -0.05625697920494
  C   -0.07864487628305      0.79335150040784      0.04371244133089
  C   1.12105921155998      1.57570022277653      0.13208101005568
  C   1.03568131375768      2.97081083475786      0.27484275839834
  N   1.01801865755077      4.12923339426907      0.39936978368783
  C   2.41865686722146      1.01543380966769      0.08500431971676
  N   3.53087060412460      1.80407447346769      0.15885262149110
  C   2.51509117981423     -0.36429492144711     -0.07653246497868
  C   3.58985590429317     -1.26304050358008     -0.19460574101915
  N   4.92500927051656     -0.98333060543711     -0.29236356397801
  N   3.15985879811062     -2.56157415606281     -0.18532775661595
  C   1.82956658932480     -2.51478865786914     -0.08783771851716
  C   1.34245785952220     -1.18334061549378     -0.03607361112930
  C   0.04219370536170     -0.67679843390767      0.05183723628291
  N   -0.94174513472352     -1.57053493825727      0.16782900854921
  C   -2.25288485406814     -1.44647637039308      0.17447298987987
  N   -2.89972106680095     -2.60796449803275      0.44643652819800
  H   -4.51602153955240      1.79703674276640     -0.32531866959761
  H   -3.26504884430454      2.96575261725517     -0.31135420981899
  H   -1.18655508417659      2.54897172566160     -0.10375628166242
  H   4.34830318178242      1.37898320228728      0.56417685614520
  H   3.39214440035934      2.76247693399272      0.43831629289310
  H   5.47944176579779     -1.79608990964994     -0.51418835038614
  H   5.16907758603248     -0.18064266428256     -0.85080524289758
  H   1.23920359860476     -3.41669394502533     -0.06934088556318
  H   -2.34174752926280     -3.44164526610744      0.46001739839466
  H   -3.89563104614607     -2.69449427529704      0.35598517582262
