27
Coordinates from ORCA-job ./opt_b97-3c_parallel
  N   -3.16661863457467      2.86205579367481      0.01116754245858
  C   -2.61719735713120      1.83438104851444      0.00686255180260
  C   -2.04909766439207      0.54364522314047      0.00217970685178
  C   -3.02115815845132     -0.50054445315185      0.00275455742782
  N   -4.32705358613213     -0.14473106440041      0.00779942439588
  C   -2.74709273595793     -1.87164866922509     -0.00058913924791
  C   -1.51399874487070     -2.49898869234817     -0.00212107012326
  N   -0.27433486121093     -2.06414878019349     -0.00078220859134
  C   0.16048597680523     -0.78675081259823     -0.00030287316370
  C   -0.62092598148569      0.46513291980123     -0.00367246340138
  C   0.08553683303216      1.68494530864903     -0.01077854173739
  C   1.46685341705011      1.78218945747526     -0.00921123612045
  C   2.21908392438285      0.62843651238631     -0.00074815676191
  C   3.60596779820858      0.31269848620583      0.00565774168156
  N   4.65944031851527      1.14684513703620     -0.02388786380139
  N   3.81199993635598     -1.03893158063424      0.00733243930288
  C   2.60009974022215     -1.59926996424766      0.00582547283140
  C   1.55441414900752     -0.63632252189932      0.00228604363195
  H   -5.04025147708955     -0.84757765988332      0.00282937375152
  H   -4.61483976304322      0.81741701185399      0.00411598303355
  H   -3.60560458444583     -2.53236841758364     -0.00119242863542
  H   -1.57591488129790     -3.58626413391757     -0.00456089088572
  H   -0.48155433646064      2.60330470990021     -0.01740082176255
  H   1.91954969700089      2.76684673343202     -0.01867788017386
  H   5.56899039783797      0.74745546980181      0.12885140658052
  H   4.54382640452414      2.12307762052575      0.17376168356141
  H   2.48211299080088     -2.67097629721434      0.01043263289486
