31
Coordinates from ORCA-job ./opt_b97-3c_parallel
  N   3.77897249218912      2.80097532877972     -0.52440769381710
  C   3.11699666085406      1.85637900045867     -0.35526809740665
  C   2.33904734789562      0.70243889968412     -0.13934670611010
  C   3.08477551482464     -0.48005332749022      0.10537767105249
  N   4.43885556355114     -0.37975652867473      0.09424588636713
  C   2.55445517818588     -1.75084390041622      0.34556340943557
  C   1.25196151090819     -2.17073147660682      0.23974873651766
  C   0.05543398907771     -1.50268823423679     -0.01944236341988
  C   -1.10785557810305     -2.34070938348373     -0.17676506949521
  N   -0.95286126883963     -3.71377474149844     -0.33542301022248
  N   -2.35971388838529     -1.92141114639075     -0.14244179547554
  C   -2.55288972597001     -0.60420010096909      0.00238233648084
  C   -3.72978753535997      0.12457919615246      0.06969749259865
  C   -3.32355650287571      1.47670274057862      0.10095697945966
  N   -4.12808234572020      2.56766886795781      0.21042575184440
  N   -1.97867180884571      1.63160826103756      0.06340094231405
  C   -1.46233029913196      0.36814999819997      0.01885565020789
  C   -0.13902145371587     -0.06313145211187     -0.01350467599483
  C   0.92907617726555      0.92324233663263     -0.06173130421269
  N   0.53122697128156      2.19451303845892     -0.08834590839504
  H   4.99104617882551     -1.16704128339206      0.37580396766639
  H   4.89338453336126      0.51604535796594      0.08880169132625
  H   3.27879290321800     -2.51789142570231      0.59176893154355
  H   1.12816580287882     -3.22919410662292      0.42727711422808
  H   -1.84889632560740     -4.14531841362280     -0.50147318412945
  H   -0.27449830938161     -3.99574377150086     -1.02351016472792
  H   -4.73583752402605     -0.25891728213821      0.07890270775651
  H   -5.08730238360590      2.46369386326007     -0.06725101101118
  H   -3.70832526291563      3.44767212701674     -0.03572369001856
  H   1.20534760853924      2.94032055891105     -0.11616511910873
  H   -0.48298970347208      2.39653800546350     -0.04249249445369
