31
Coordinates from ORCA-job ./opt_b97-3c_parallel
  N   -5.77350549967904      1.06793375855881      0.23930946831029
  C   -4.67628858241892      0.68329188504605      0.16786662550457
  C   -3.34848805709927      0.22677681414204      0.07288593417095
  C   -3.17397993316345     -1.13582849462741     -0.28732596596141
  N   -4.19903076683336     -1.79369301780053     -0.84884614361135
  N   -2.11995018665068     -1.92010718431983     -0.02282606590128
  C   -0.89827349390193     -1.55413347767416      0.24089344000108
  C   -0.24858575569624     -0.30174618207034      0.13426471173697
  C   -0.91367107361463      0.97854455312915      0.05768735452345
  C   -0.12258309432467      2.11638968949138     -0.15964448336126
  N   1.20368621335795      2.13994149353342     -0.25583479679505
  C   1.83994785591339      0.98873022804150     -0.09130287476144
  C   3.23030961629966      0.76143971566300     -0.10489769371814
  C   4.26668617354704      1.68318835483449     -0.26010568555378
  N   5.18588659302322      2.38663804678624     -0.38286899228574
  C   3.42851363556765     -0.63185984861773      0.06097286654135
  N   4.61197078106190     -1.24932421624219      0.11281463830303
  C   2.15823984432892     -1.28228638699549      0.17457355298249
  C   2.05189213583032     -2.66377873480495      0.32331934984294
  N   2.02979803348928     -3.82363911109652      0.44418667686829
  C   1.15760654117452     -0.29019905921370      0.10156597044605
  C   -2.31746007186136      1.17443640207654      0.29436397732215
  N   -2.71052011854353      2.39839551313376      0.68854120015211
  H   -5.07278886875123     -1.34594447907489     -1.06048959533889
  H   -4.13040181394013     -2.79331128281453     -0.92248997108848
  H   -0.26349614254838     -2.38591801479037      0.52098697106179
  H   -0.59822713585554      3.07297785966315     -0.33671911933408
  H   5.46263149352740     -0.73200992237153     -0.01803372099229
  H   4.66905586415592     -2.24903189685891      0.18697999248190
  H   -3.68400284321251      2.61534416919820      0.81532104212198
  H   -2.04355950948216      3.06815698587507      1.01914681833165
