27
Coordinates from ORCA-job ./opt_b97-3c_parallel
  N   -4.65648591818697      0.47357012433239     -0.04928670109384
  C   -3.33563627615591      0.13405316370155     -0.06098201037495
  C   -2.24079606483537      1.03185163694924      0.00336693323828
  C   -1.09658645213948      0.22194814088812      0.00591675336443
  C   -1.63320636269021     -1.15046706237619     -0.07160266746614
  N   -0.87557841901839     -2.23152550399596     -0.17156127155671
  C   0.44037364156195     -2.03660108619861     -0.15469276325384
  C   1.09868481269046     -0.80268322932393     -0.04700094646516
  C   2.53591147300012     -0.84904064189691      0.05514984461783
  N   3.09647125919247     -1.97790039642542      0.54311980869946
  N   3.43482236326828      0.03517171947553     -0.36223255949273
  C   3.21748556901611      1.32458347135577     -0.55164159069203
  C   2.14771562434026      2.11568226475087     -0.20020214634562
  C   0.85781908443968      1.71587698630490      0.18507262695022
  N   0.03187326127878      2.69996989547540      0.61131441976325
  C   0.30092971944558      0.40306358293824      0.03190062520849
  N   -2.97811343092108     -1.16366856634098     -0.08863081851957
  H   -5.27664876179474     -0.26223295257748     -0.34402170652959
  H   -4.90102236249488      1.38728441409654     -0.38783243023688
  H   -2.33211063292600      2.10220949791937     -0.07640095361849
  H   1.03377156293199     -2.93025451457610     -0.30413763581353
  H   2.56873706851378     -2.63444229816928      1.08433772480136
  H   4.09968752238065     -2.01838951241955      0.56837257696327
  H   4.07234455289901      1.84826266841331     -0.97108640889336
  H   2.31520855957362      3.18460951029589     -0.26456178640568
  H   0.43680132808032      3.57765774920146      0.88178436596761
  H   -0.82328361945001      2.43963962260201      1.07407425288391
