28
Coordinates from ORCA-job ./opt_b97-3c_parallel
  N   -2.26876797328225      3.45331517619159     -0.15558373125242
  C   -2.15828224898114      2.29265520984892     -0.10411802728011
  C   -2.10520682008044      0.90387305394166     -0.04545269747018
  C   -3.26747884346832      0.06702316827847      0.01074082682910
  N   -4.53740651643126      0.50479332913269      0.05382193006229
  N   -2.97575078031424     -1.24651971290841      0.05684177486468
  C   -1.62816553581349     -1.30813751640820      0.03114334440176
  C   -0.84568342462528     -2.44236959386800      0.10041524740453
  C   0.54448311345751     -2.34967993555440      0.06110236954659
  N   1.29361861044327     -3.51793955543348      0.10440098426735
  C   1.18900916222796     -1.08878243089663     -0.06800100196141
  C   2.55273817537956     -1.09426769480218     -0.39249930866632
  N   3.48741017697048     -0.16630874224620     -0.38996581099108
  C   3.27431198267022      1.11203974326715     -0.02324000270302
  N   4.38123242802502      1.76294044812334      0.36473138513638
  N   2.17326701742393      1.88035690241084     -0.06144154775578
  C   0.94031570814998      1.42631689044641     -0.12912196104314
  C   0.38748373037678      0.13550757546242     -0.05307838922016
  C   -1.01023439039108      0.01247026585533     -0.03785255206975
  H   -5.26922170752707     -0.17020206522687     -0.07467033417975
  H   -4.74032424394202      1.46399177928700     -0.16219919433521
  H   -1.32627590950726     -3.40709431934139      0.20386251759128
  H   2.11023730383181     -3.49808703057572      0.69021782313312
  H   0.75022944967782     -4.34852906399034      0.26759995905332
  H   2.93533193994088     -2.05791759666522     -0.71687171779891
  H   5.26914590373423      1.29894029032576      0.31159380472116
  H   4.33065342325257      2.74934920297667      0.54257452131413
  H   0.21477567080353      2.22547838566909     -0.22676377400081
