26
Coordinates from ORCA-job ./opt_b97-3c_parallel
  N   5.60664822729635     -1.23766129074033      0.72311512265101
  C   4.55962254279329     -0.76669518308279      0.54098721365364
  C   3.29645889491206     -0.19229219938747      0.31858634495633
  C   3.05317178024534      1.17758992706684      0.01283046677556
  C   1.67566328109017      1.34715519998948     -0.11881916168295
  C   0.90330729424522      2.45940251699971     -0.47516147465047
  C   -0.46307004766384      2.35721286956357     -0.54637298707833
  C   -1.14243588705951      1.15365794452534     -0.23665102484964
  N   -2.44193318002701      1.24844447059182     -0.04198169387647
  C   -3.28395763451987      0.24586668700372      0.28840139968566
  N   -4.41390314728511      0.68362904189541      0.88304028236874
  N   -3.23359449780184     -1.05888651144984      0.05769259765824
  C   -2.10341015431608     -1.68602168893670     -0.28032807805631
  N   -2.27949085424556     -2.93689028097518     -0.75805633809437
  N   -0.81823229074845     -1.33320630198743     -0.15934402095067
  C   -0.33305394479030     -0.10580616647338     -0.06507127400856
  C   1.04793339366398      0.07318487120189      0.09806979063513
  C   2.07029052158647     -0.86767816709372      0.35528259716417
  H   3.81294799517992      1.93327002654569     -0.10665589211894
  H   1.38100438728490      3.41243279158175     -0.66688397774988
  H   -1.07949441881705      3.22318318165133     -0.73731101127810
  H   -4.59465735027658      1.66968129839120      0.90343455269490
  H   -5.16593718740919      0.03676772530529      1.03173565910104
  H   -1.47574417514755     -3.52834720257407     -0.85706274885423
  H   -3.19527735954265     -3.34436198498055     -0.72738332808328
  H   1.93301024695291     -1.91604457323157      0.55848351958780
