26
Coordinates from ORCA-job ./opt_b97-3c_parallel
  N   5.11740412543415      0.81084738953788      0.12663264515306
  C   4.07770684752460      0.29370570538807      0.04840337760471
  C   2.81696853454651     -0.30797497716494     -0.04048180858500
  C   2.54155860691312     -1.67948330605076     -0.26821251877216
  C   1.17279870000073     -1.88696831080889     -0.27409967017204
  C   0.52112019301942     -0.63119268168219     -0.07192705985113
  C   1.58221473526820      0.35740849137824      0.05996063216267
  C   1.28113515187147      1.70096320977436      0.23128470826590
  C   -0.03075163466414      2.10061800767937      0.21371283831518
  C   -1.10614162660185      1.19309614079953      0.06111480845275
  C   -2.36846770245664      1.82729277611156     -0.04265581342681
  N   -3.58655238707117      1.41638194818623     -0.31088739313899
  C   -3.94589168705608      0.13301193330145     -0.37836688977081
  C   -3.24401739082308     -1.01215303295063     -0.09728209244025
  C   -1.87415921368472     -1.20275340271138      0.15769996141597
  N   -1.51903882594914     -2.45422760397443      0.51529464284558
  C   -0.82422338440606     -0.22907604613135     -0.00185314346206
  H   3.29302616337541     -2.43626281120658     -0.42793645985047
  H   0.71709978460722     -2.82666523524680     -0.53490041505960
  H   2.07660709871304      2.42535785158326      0.34885962498774
  H   -0.26555870352770      3.15250644978072      0.29226527005966
  H   -2.31065270674432      2.90681015538913      0.07043435982987
  H   -4.98997216491907     -0.01119513101380     -0.63981970932679
  H   -3.84066872388631     -1.91839536733371     -0.08968966294921
  H   -0.59694837127662     -2.61324569996041      0.88735808478139
  H   -2.23420650850693     -3.10280924417403      0.79077156543081
