30
Coordinates from ORCA-job ./opt_b97-3c_parallel
  N   -5.96550326524922      1.21675572046797     -1.11771091147534
  C   -4.96473209487478      0.70962524437333     -0.81583214703011
  C   -3.76150594662217      0.08168909479416     -0.44963361925669
  C   -3.64244191381513     -1.25238604743238      0.03356284211572
  C   -2.29062170187976     -1.51507397689334      0.22937896191966
  C   -1.63143092889954     -2.66737465165447      0.66471487134442
  C   -0.26253367712759     -2.70313655124315      0.66895156086920
  C   0.52047516068671     -1.59838627375217      0.25373551389861
  N   1.78244647428999     -1.87834980859486     -0.00426260901858
  C   2.80035989440805     -1.10094301593983     -0.34845739538927
  N   3.80886365670844     -1.76334642095273     -0.95453999258390
  C   2.97407136276777      0.27761696254607     -0.06294840215368
  C   4.28476402682008      0.77886535446861     -0.15331007916782
  N   5.37147063378012      1.19036209752654     -0.23484050190516
  C   1.95505374151964      1.19449856508998      0.28684658141799
  N   2.34974091534872      2.43461901754280      0.63255918893354
  C   0.54643529937840      0.93599763389040      0.25010176907001
  C   -0.22216469849329      2.09384854252998      0.51156136966599
  N   -0.73051013571962      3.10930083383483      0.76385105101427
  C   -0.14950682379001     -0.28146046891811      0.06698366409554
  C   -1.54185536394804     -0.32600974173248     -0.10000998627739
  C   -2.48841592800036      0.65028136222995     -0.52126826774044
  H   -4.46353272229412     -1.92893420959720      0.20719700377961
  H   -2.19772711459843     -3.54861053969216      0.93854333949012
  H   0.27404418036373     -3.61511485060384      0.88235300255563
  H   3.76505004271266     -2.76618754587008     -0.95730606892981
  H   4.68544346218639     -1.31934915858727     -1.16153505727843
  H   1.67926227864703      3.16303066743033      0.80507992436149
  H   3.32073195339231      2.69009089053416      0.60851989080532
  H   -2.28811653438135      1.64058870340813     -0.88740036513700
