28
Coordinates from ORCA-job ./opt_b97-3c_parallel
  N   -4.55083649147719      1.23091396753417     -0.21726248234297
  C   -3.42716231745035      0.43878229115998     -0.08781114417107
  C   -3.63078373330046     -0.94320646884109     -0.02156077759499
  C   -2.66058292609585     -1.92429505483265      0.04795790880378
  C   -1.28321087231844     -1.83271584603731      0.06152896281205
  C   -0.42433067069649     -0.72496438739784      0.01270628260415
  C   -0.86772238611864      0.67826393743082     -0.01875143329992
  C   -2.19872284882215      1.10518271501423     -0.07698575291989
  N   0.01023961187205      1.70903122391435      0.02203264057833
  C   1.32437920097080      1.49037007224571      0.02758802003613
  N   2.12264194512914      2.59830784080182      0.09219751702056
  C   1.86413450092361      0.20559329947046     -0.05267014450577
  C   3.15196429796103     -0.33960896354875     -0.07623000289045
  N   4.36249911253022      0.33286214358081     -0.11931000866009
  N   3.11017763343458     -1.69817685172804     -0.01238418775984
  C   1.81288974262943     -2.04479094322505      0.03533787506737
  C   0.96640394683865     -0.91460888716025     -0.00052376076940
  H   -5.42399913980282      0.83100827035887      0.07795438257834
  H   -4.45388812917781      2.20030510615560      0.02874259035273
  H   -4.66027780953863     -1.28140039295665     -0.03649443016182
  H   -3.04400886106615     -2.93720276156076      0.09641965761021
  H   -0.77375618968488     -2.78657893428201      0.10827573225254
  H   -2.26309409090639      2.18618461983133     -0.11843328900727
  H   1.63803262044019      3.43750833002795      0.36632393011773
  H   3.02812433123797      2.47177584443897      0.51460277756781
  H   4.40189825215601      1.05869511979031     -0.81978322963659
  H   5.12928201425577     -0.31367728507170     -0.23492612709559
  H   1.53455346047680     -3.08670232441327      0.08370569611398
