28
Coordinates from ORCA-job ./opt_b97-3c_parallel
  N   -2.50870746720233     -3.95025122433161      0.01519518143506
  C   -2.16456963638900     -2.84088486485978      0.02444046258173
  C   -1.87544282946478     -1.45142898886158      0.06579518243702
  C   -2.96499560027149     -0.65034477736569      0.45712013279522
  N   -3.16060516156232      0.63933327792624      0.44900241235201
  C   -2.28044567033507      1.56784641744016      0.01495349575825
  N   -2.88557362927149      2.74518853165757     -0.23681881581800
  C   -0.87612206117082      1.46540851278854     -0.14390836552495
  C   -0.26634353723226      2.68246494357899     -0.50365956693005
  N   0.12632594683058      3.73328554345575     -0.81970641103588
  C   -0.03713158011631      0.30634840608587     -0.00922565813980
  C   -0.52952665649007     -1.06857467435434     -0.15514381707979
  N   0.28806414335980     -2.09969969198293     -0.43097642537221
  C   1.60499516396057     -1.93125549380698     -0.42155119863167
  C   2.18627639688404     -0.73580142434372     -0.07540388620011
  C   3.53717136648393     -0.32329507769119      0.10234383974773
  N   4.63664719528614     -1.08524620424627     -0.03982314246462
  C   3.52423165016287      1.06004561178179      0.43354156367603
  C   2.22071080725270      1.50341967796543      0.44703689470780
  C   1.34430740758454      0.41278395812337      0.13701615319877
  H   -3.82684736984678     -1.21346050652155      0.80315998388899
  H   -3.86711043391887      2.80736326505283     -0.03911836766059
  H   -2.38018569650300      3.56395202242724     -0.52356283887779
  H   2.18827994779966     -2.80829587439069     -0.68828066218488
  H   5.53379681942232     -0.72999039732403      0.23489899996294
  H   4.56150548246719     -2.08151483922643     -0.12979516878514
  H   4.39783386248524      1.65716133154293      0.64341516957037
  H   1.92451411039495      2.50922385957983      0.68535022429371
