26
Coordinates from ORCA-job ./opt_b97-3c_parallel
  N   3.67873275693162     -2.21511999119326     -0.26903806579542
  C   2.73211422467924     -1.54629680175395     -0.18003608211807
  C   1.69201215594188     -0.59733292822297     -0.11598000464576
  C   2.04589436092841      0.78163897890282     -0.19055101521895
  N   3.31520425557063      1.12426562175139     -0.44217174276826
  C   1.04401872506131      1.72978901800651      0.06291453689557
  C   1.09013243823595      3.11788638042144      0.15557741331976
  C   -0.21877290443892      3.58681622039894      0.41466851257164
  C   -1.08915675371436      2.51437975874944      0.45219303133618
  C   -0.33719003149780      1.31922903484170      0.23719397348034
  C   -0.71314582296741     -0.01435723553206      0.11995110577607
  C   -2.02800272660631     -0.43648645700276     -0.21850949282415
  C   -2.99092730255246      0.53558869131409     -0.59588569952066
  N   -3.83402229068341      1.26538095852227     -0.92051820642467
  C   -2.51415098131069     -1.75098090485906     -0.37171725354949
  N   -2.03400277616144     -2.90611153156374      0.03701344423857
  C   -0.82972212891521     -3.03875902116121      0.59293387197159
  N   0.24478073021133     -2.29487328733604      0.51137566835920
  C   0.38150727943771     -1.01924782527888      0.14325440839648
  H   4.02843341210473      0.42070803371939     -0.53485891857918
  H   3.60555449642008      2.08288056292843     -0.41201106606689
  H   1.96078006739622      3.74761705532686      0.04845157868905
  H   -0.49108551229636      4.61980030176259      0.56118093872559
  H   -2.14368333300768      2.57549092519159      0.64916062144012
  H   -3.48234711816330     -1.81948777087600     -0.85771596602688
  H   -0.68667480522848     -3.97265998813067      1.12740847163424
