31
Coordinates from ORCA-job ./opt_b97-3c_parallel
  N   5.21030269536577      1.72748190473629      0.33585143731967
  C   4.16404883714970      1.22388461139526      0.27240939146146
  C   2.92509322542646      0.55805799389406      0.14321708934084
  C   1.76310863924219      1.26538592298263      0.34480912234194
  C   0.41148151316143      0.90641084627000      0.16964257507236
  C   -0.52144619345803      1.98827021194793      0.04070844659536
  N   -0.07086230651106      3.29450128580371      0.02441361693784
  C   -1.89649483347976      1.72661311602824     -0.03469477297897
  C   -2.79481059441937      2.80922310244977     -0.16562190667782
  N   -3.44939375752840      3.76200477148905     -0.27498669764693
  C   -2.35974207923122      0.40484250509580     -0.06096638182837
  N   -3.63232029721563     -0.00385939188871     -0.18985031599709
  C   -3.57000861835366     -1.34966747764316     -0.22934909151403
  C   -2.26592091806348     -1.85974691191456     -0.10243033685374
  C   -1.90320113321995     -3.20234795617649     -0.22005649070597
  N   -1.57605219620085     -4.31890376241420     -0.29246105059506
  C   -1.42595577390938     -0.70006419553940      0.01669101193816
  C   -0.06938766498120     -0.44749316014243      0.17479884902240
  C   0.84982858199287     -1.53514200938723      0.49111929080009
  N   0.42137269513685     -2.48808095114588      1.31189653910963
  N   2.05760757112160     -1.71393370723001     -0.01951364533967
  C   2.96430464025288     -0.81746763671267     -0.31081022800773
  N   4.03219212877380     -1.22628838874622     -1.00969068251244
  H   1.92296639380420      2.29473764944631      0.63643562997376
  H   -0.79783438093075      3.98300958609453     -0.09585611264929
  H   0.71143531199299      3.48914488116478     -0.57654953180043
  H   -4.46180985200869     -1.94194498088887     -0.36871258089661
  H   0.93135134993411     -3.35406495332053      1.36416019890299
  H   -0.52986568639431     -2.49600801181593      1.63444899941467
  H   4.81128555565428     -0.61542932523980     -1.17813942440054
  H   4.12995199239298     -2.20324096269348     -1.22137382112517
