31
Coordinates from ORCA-job ./opt_b97-3c_parallel
  N   -5.19353853569559     -1.54323863026115      0.81515406577430
  C   -4.11998431129520     -1.15058847185194      0.59642951509256
  C   -2.86967590587907     -0.57719637595875      0.33472945466773
  C   -1.62705491187409     -1.20407455125418      0.27851710498941
  C   -0.62826449032327     -0.21745495041856      0.06416541054518
  C   -1.31343697092831      1.05216789296015     -0.03307888267769
  C   -0.59267546598334      2.22137468748616     -0.29352540098614
  N   -1.23161663017093      3.41644961556027     -0.51320240016617
  C   0.79704604863096      2.15541065073317     -0.23682960086774
  C   1.51036262907558      0.97388989700567     -0.02451241180522
  N   2.81529081518992      1.17373409895704      0.22361614445247
  C   3.82960272420443      0.33977831237585      0.30321934717356
  N   4.97440355416492      0.89384449519560      0.79140010439278
  C   3.88714433941276     -1.02402256662537     -0.07604881896294
  C   2.81377768363387     -1.81455600983761     -0.35438479937236
  C   1.43041300543475     -1.54221223019094     -0.32200123011369
  C   0.66784154267137     -2.68692146696951     -0.66241061860107
  N   0.12400876660769     -3.66994883400283     -0.96281838886686
  C   0.76965742550185     -0.31470083410135     -0.05429610406464
  C   -2.68341382288867      0.83301708109392      0.14923748374645
  N   -3.69166906189009      1.76252467539567      0.14626106335819
  H   -1.48081015687190     -2.25635771004091      0.42952977044017
  H   -2.12585934696559      3.35582172117031     -0.97347143172625
  H   -0.65624064054505      4.15612687122740     -0.88004365788804
  H   1.38226545184657      3.06222370747557     -0.29874749238936
  H   5.84848538524740      0.40895461291603      0.71429055786811
  H   5.00008024589174      1.89480353891850      0.86774340634428
  H   4.86486526848042     -1.48680302350439     -0.12160596682536
  H   3.05245369318448     -2.83432236228539     -0.62788941320422
  H   -4.59214502038068      1.40531850433735      0.42857499726587
  H   -3.47695654778888      2.63870973229712      0.59639022460778
