26
Coordinates from ORCA-job ./opt_b97-3c_parallel
  N   4.72472620710503      1.31856767350863     -0.45990947050657
  C   3.68075846183809      0.82741178592867     -0.31099264504814
  C   2.45299173650288      0.15329330479550     -0.11143159955206
  C   1.30371235568219      0.95771364856354     -0.08371941023427
  C   -0.03905380917925      0.68494461497301      0.07226898418657
  C   -0.95519564356292      1.81284644131471      0.13104741657863
  N   -0.45985812268579      3.09203457004953      0.27771188001602
  N   -2.26751505846828      1.72259892005010      0.00561170424044
  C   -2.78539916726274      0.49285927026352     -0.10509495129875
  N   -4.07229702953739      0.16490431467923     -0.23334522532761
  C   -4.02702704794187     -1.19982396228782     -0.20474713232928
  N   -2.83193759080133     -1.79204838958866     -0.07239786250143
  C   -1.99258228550552     -0.72416545402714     -0.01245902571878
  C   -0.61509133440357     -0.65179936465702      0.08256696007925
  C   0.11040906821240     -1.86110267084926      0.17624950507105
  C   1.44331600036344     -2.13041391085334      0.20497390098788
  C   2.54686373598178     -1.25042954883002      0.06598550981209
  N   3.76735479909948     -1.81210088750746      0.08651913314193
  H   1.53436889445568      2.00294564510278     -0.24114957906164
  H   -1.20522827053973      3.76545722423025      0.36088971674436
  H   0.26085041207747      3.22831187273248      0.96559398268287
  H   -4.93392925598005     -1.78183867550725     -0.28611248921953
  H   -0.53977638762697     -2.72602237354428      0.23558161970984
  H   1.70818162856483     -3.17601963325671      0.31034003826266
  H   4.60022286465247     -1.26287379560495     -0.04271716281398
  H   3.87338672185951     -2.80592677637827      0.16716043589808
