27
Coordinates from ORCA-job ./opt_b97-3c_parallel
  N   5.10509888514898      1.69737300777290     -0.61590017948307
  C   4.14239376379149      1.08677150779423     -0.39583279080649
  C   2.97440324682743      0.32897942228062     -0.12033579332043
  C   3.17712681451963     -1.00187651404273      0.31190925406762
  N   2.33407015630179     -1.98149920686156      0.44476385499248
  C   1.01088673611257     -1.98805001497479      0.15540362990676
  N   0.51908732887389     -3.21065457413010      0.03220306553730
  C   0.07045882125628     -0.88380496228259      0.04755620878508
  C   0.45499737618245      0.51481264542657      0.04166375060286
  C   1.75188955300509      0.98027607567132     -0.18187607324918
  C   -0.56176407405131      1.53530961735282      0.13417473423436
  N   -0.18804071130164      2.85012943674860      0.27120633327958
  C   -1.92303049359341      1.21057719655485      0.03175062747907
  C   -2.88918161873120      2.23576060600997      0.12660495264665
  N   -3.61264335860658      3.13953274760583      0.21726128852889
  C   -2.28935685420825     -0.13222793150837     -0.11064978603214
  N   -3.50410454191978     -0.68676411173124     -0.21605997969786
  C   -3.22764604208391     -2.01280917176860     -0.24862661693899
  N   -1.93680822804657     -2.36650211556906     -0.17205128121287
  C   -1.28335343910870     -1.16470375195214     -0.07959909094395
  H   4.20298086594937     -1.26270526568383      0.55693667079814
  H   -0.49926939472530     -3.33745522471932     -0.10821412309261
  H   1.15077325016402     -3.97789828116516      0.19248276925762
  H   1.81931433645348      2.02738029631887     -0.44415317290116
  H   0.55237326339194      3.05288292016103      0.91921575672171
  H   -0.94423524079109      3.51292174859151      0.33595085691479
  H   -4.01085592501040     -2.75019285999898     -0.33882486557418
