31
Coordinates from ORCA-job ./opt_b97-3c_parallel
  N   -5.07920332422643     -2.01559467227235      0.52061108862960
  C   -4.07991075075271     -1.43021041952748      0.38417299903515
  C   -2.89228419634677     -0.72111831980063      0.22123570375366
  C   -2.77213381455571      0.69981433760818      0.15112805051492
  N   -3.81658269539038      1.56855693273762      0.17171459448092
  C   -1.40851244498050      1.02500075325066      0.01137156243886
  C   -0.71235687507361      2.19808164566296     -0.27094146384423
  N   -1.35763917457272      3.39422018009365     -0.50944220425149
  N   0.61831466856717      2.23284693160582     -0.28130807178715
  C   1.35890864909865      1.12721607195072     -0.09334333410482
  N   2.64536394377589      1.35538875531115      0.13939175440851
  C   3.60839318473947      0.43841434148403      0.28163639829040
  N   4.74521783188225      0.95237699172494      0.81268910407332
  N   3.70334878638228     -0.85382381487069     -0.03654154055548
  C   2.64807384971803     -1.61094795367309     -0.34153570023768
  N   2.99251154469124     -2.84614019753918     -0.80157460774464
  N   1.33290859635579     -1.41330983730097     -0.24953999511743
  C   0.72152155766225     -0.21867802016613     -0.09960090124660
  C   -0.65537438923665     -0.19103903385505      0.03315673502113
  C   -1.58952772201538     -1.27198140262557      0.13552893513917
  N   -1.23600206145604     -2.55582988995240      0.17194299720822
  H   -3.62623079090305      2.48969611787490      0.53155148012918
  H   -4.70675586519147      1.19501118352682      0.45925007554481
  H   -2.19413201233838      3.32894374974029     -1.06826530391130
  H   -0.72212070378346      4.10596908228173     -0.83676927336579
  H   4.81998574358770      1.95076978502871      0.87309437484380
  H   5.57880455266324      0.39566417622467      0.78109685057031
  H   3.94113644497529     -3.13939662924950     -0.65799288403693
  H   2.27988279849634     -3.54941621203472     -0.84886391676878
  H   -0.25414179840634     -2.74280911998547      0.00200501106960
  H   -1.92238589196626     -3.28890404475230      0.15903439652104
