30
Coordinates from ORCA-job ./opt_b97-3c_parallel
  N   5.95516476586534     -0.98929974087784     -0.69918165716427
  C   4.95249134570818     -0.45152476050082     -0.46683579898905
  C   3.72121476642192      0.19669137519027     -0.17653915483043
  C   3.77712431991888      1.55773439391693      0.08396689327919
  C   2.71595763157873      2.42456746940744      0.32437390019801
  C   1.36495638918607      2.15621023577008      0.28863278819310
  C   0.64821572854536      0.96186990666022      0.11770399143624
  C   1.24798078106129     -0.39006401086631      0.07481447424396
  C   2.58367222182769     -0.64630328224491     -0.13583091270911
  C   0.37995780523326     -1.53808545036307      0.16637119093448
  N   0.91822785885198     -2.79634541620216      0.27792044014269
  C   -1.01130184846210     -1.38587319674226      0.07054936483282
  C   -1.81898793909921     -2.54179447669384      0.15127057936252
  N   -2.41312720674180     -3.53674804719699      0.23231903425448
  C   -1.58033262123746     -0.10674410244386     -0.05215660461031
  C   -2.88441419201066      0.36991886220305     -0.13596829658953
  C   -4.10455906734171     -0.30004333865235     -0.22577974830412
  N   -5.16866113929114     -0.76488972680164     -0.31052237630607
  C   -2.74679860312148      1.81243241445088     -0.11547494730927
  N   -3.77393639787291      2.67268256066829     -0.15220548356892
  N   -1.47537543541145      2.20913877373290     -0.02671480111709
  C   -0.73677327190983      1.06559520193080      0.01131147440345
  H   4.76553099779897      1.99919045011489      0.07651613446450
  H   2.98613251356719      3.45683123975501      0.50274929773489
  H   0.71628377525874      3.01642425480240      0.39973444293651
  H   2.82431542488264     -1.68230352980186     -0.32948131197939
  H   0.25565903770512     -3.55167092220494      0.35218138025086
  H   1.69530403400611     -2.90812516175495      0.90505264983449
  H   -4.69925117581899      2.34522742285483     -0.36241353220645
  H   -3.58042832450067      3.65202756218804     -0.25515171081728
