29
Coordinates from ORCA-job ./opt_b97-3c_parallel
  N   1.37000855388965      4.17909050205302     -0.34190851093761
  C   0.71576397461979      3.22018163687979     -0.26746071978502
  C   -0.06905495351576      2.05065608966462     -0.17342595717527
  C   -1.45525268497105      2.18379111927567     -0.21289923491847
  C   -2.24349368339639      1.06352527035283     -0.07964582922790
  C   -3.63478641337639      0.85380707325560     -0.01668038676600
  N   -3.93658618408661     -0.43706530775236      0.18506003949312
  C   -2.75244137898671     -1.10432421390390      0.24417631211527
  N   -2.76172042381901     -2.44884660264796      0.46315913144783
  C   -1.64188921585815     -0.23354727423906      0.06381333017923
  C   -0.25284444353945     -0.43394223689730     -0.02271721779496
  C   0.25917785642835     -1.72490250207536     -0.16609694407739
  C   1.57495410448871     -2.20658817330485     -0.19456663026710
  N   1.72593622855829     -3.54663138325468     -0.44747407812686
  N   2.73348455723682     -1.60060789983345      0.06038962886651
  C   2.87894694456813     -0.29607168120241      0.25479618970025
  N   4.14464551900839      0.05950495225506      0.61143065678125
  C   1.95801201106112      0.76617200841266      0.11985145727846
  C   0.58361890414828      0.77462853816273     -0.03121186567820
  H   -1.88862971456687      3.16810247202117     -0.32652025999680
  H   -4.41354710327140      1.59805836001566     -0.09475136301078
  H   -1.97433803233777     -2.83404223815095      0.95909364802431
  H   -3.65423272781623     -2.79254344913550      0.78280240851195
  H   -0.48301893398858     -2.48688512826448     -0.35744728863350
  H   2.66689907299466     -3.83889942893512     -0.64511551442181
  H   1.00374215950474     -4.02503059338034     -0.95457887844945
  H   4.43055233324207      1.01999872465048      0.57240808629831
  H   4.85736488708886     -0.64051605424738      0.51054398990478
  H   2.41401106459296      1.74583006222483      0.17871187416644
