26
Coordinates from ORCA-job ./opt_b97-3c_parallel
  N   -4.33004323419945     -1.10134782106067      0.26856681806380
  C   -3.11121750344172     -0.48395651283809      0.17678503273718
  C   -2.93285351291657      0.91596086136290      0.01301801500195
  C   -1.57456915253927      1.15345682842787     -0.04818372844824
  N   -0.95240580667029      2.33582157692994     -0.19150115424312
  C   0.35959832519847      2.31292023091750     -0.20603972589102
  C   1.18046553924439      1.15384848867368     -0.09059182973451
  C   2.54548162863993      1.40661289553443      0.00318489948957
  C   3.60139953642618      0.54513888946204      0.25506148341787
  C   3.53082730388860     -0.83256712097544      0.36111932531064
  N   2.54214439786468     -1.66622220897120      0.08426282307168
  C   1.27530394565972     -1.37570542155079     -0.19954226564441
  N   0.58976823407949     -2.43524074265866     -0.67097091415852
  C   0.52752341982036     -0.14311757157010     -0.02502685244052
  C   -0.86373659881520     -0.14443018814629      0.04132312128194
  C   -1.86672128951798     -1.13270278357967      0.16755371975853
  H   -5.09535472256443     -0.53266178450882      0.58714471041021
  H   -4.33718321920001     -2.02749704694393      0.66012774464944
  H   -3.70975134893045      1.66038038770406     -0.05482266385848
  H   0.85827127328749      3.27428418515095     -0.27802426507223
  H   2.81147109811331      2.45569777742659     -0.06987774315145
  H   4.57784823778202      0.98713640817612      0.40615478329567
  H   4.44410284018907     -1.33941221875160      0.66210858365578
  H   -0.31359106052674     -2.30448266690145     -1.09449669037393
  H   1.12244092381094     -3.26019741157236     -0.88402004274765
  H   -1.73516567738272     -2.18229200733704      0.37529297331984
