31
Coordinates from ORCA-job ./opt_b97-3c_parallel
  N   5.92320897367038      1.18148398243614      0.02820097858609
  C   4.80484805909397      0.85735838951283      0.03144793490689
  C   3.48523487768321      0.39302348321244      0.02718500592012
  C   2.30298502633938      1.15842609778593      0.02639018318096
  C   1.20397205203424      0.29003947143640      0.00276252435389
  C   1.72088976418364     -1.05587106149058     -0.00584666555484
  C   0.82795475924696     -2.10394278245439     -0.01760742002788
  N   -0.48527351210141     -1.93170029727167     -0.01558753722039
  C   -1.02403422511097     -0.68963954720035     -0.00725544934084
  C   -2.43438312456358     -0.73074408860811      0.01404363328464
  C   -2.98578630678475     -2.03864177128864      0.00957236407784
  N   -3.62020365842708     -3.01406138226358      0.00121058015127
  C   -3.40955500638096      0.31817474711052      0.03288701710948
  N   -4.71373019842356     -0.06290472906197      0.12901559522234
  C   -3.16511820997629      1.68304866950569     -0.00857204540865
  C   -1.95018930164982      2.36748461903880     -0.06103498159483
  N   -2.03361731239359      3.74153352635549     -0.16308894786489
  C   -0.66372114445766      1.83011739029082     -0.07074113660523
  C   -0.19406394142626      0.52131432277840     -0.01877435309259
  C   3.13681730675814     -0.98863588752089      0.00379913568848
  N   4.02035762809929     -2.01412470923482      0.05133236742424
  H   2.29392721507278      2.23587105734512      0.03914316541381
  H   1.15757120505383     -3.13947690193767     -0.02264306371983
  H   -4.96113790414301     -1.02936355607921      0.00196840361680
  H   -5.43122789614668      0.61057338177555     -0.06172121586546
  H   -4.05073937958155      2.30826541692966      0.00319216578711
  H   -2.88854688612501      4.17335344063577      0.14012274596710
  H   -1.21480258733027      4.26689178376028      0.08759795362924
  H   0.11846577392026      2.57749780765220     -0.12187144690429
  H   3.71832401765675     -2.92845287214200     -0.23152601374990
  H   4.98757991740978     -1.80899453340811     -0.13404037967060
