23
Coordinates from ORCA-job ./opt_b97-3c_parallel
  N   -3.55207575919903      2.41437234476529      0.00122970736927
  C   -2.87368699811167      1.47173380443181      0.00098295468128
  C   -2.08024299166616      0.29108075793848      0.00070123432347
  C   -2.84400126383354     -0.88189429280683     -0.00050071756169
  C   -2.42133164270634     -2.18990229836570     -0.00088251995016
  C   -1.09971634342439     -2.64789156337116     -0.00008812606930
  N   0.04285879227504     -2.00900703117370      0.00063590328455
  C   0.29374889931742     -0.68282087909008      0.00104253985504
  C   -0.66539306533620      0.45453881880377      0.00154913700590
  C   -0.15629123686794      1.76165068568796      0.00269793532855
  C   1.19917618760346      2.05467054630387      0.00300538548242
  C   2.11663217047706      1.02334101450361      0.00219385465880
  C   3.51682654821911      0.93551784997930      0.00230280467968
  N   3.93163185374460     -0.35766956557281      0.00147671053122
  C   2.82885601656945     -1.12335412262520      0.00086277551157
  C   1.64723495283536     -0.33970580410263      0.00120201622490
  H   -3.91500358228293     -0.72608877681459     -0.00112945009111
  H   -3.18831561906053     -2.95341116347062     -0.00172981862255
  H   -0.98648263404719     -3.72973201473683     -0.00014536777437
  H   -0.85622226381406      2.58341187862675      0.00324208334020
  H   1.51759449005323      3.08946544715545      0.00388625286138
  H   4.23076779834528      1.74534876736467      0.00294121170030
  H   2.89215688060996     -2.19936298473079      0.00018284383067
