29
Coordinates from ORCA-job ./opt_b97-3c_parallel
  N   -4.86278605880992     -3.42539815421787     -0.00137386565113
  C   -4.07499922244105     -2.57481492704594     -0.00104408736681
  C   -3.10157266316929     -1.53247116964441     -0.00078677925948
  C   -3.59593413601035     -0.23406838951665     -0.00069939398739
  C   -2.85245040737084      0.94857735014989     -0.00046135493295
  C   -3.62580516078583      2.14842011662430     -0.00009926701982
  N   -4.27199186224072      3.11073230781427      0.00033969480817
  C   -1.47135043792098      1.12065749599953     -0.00030332549288
  C   -0.40297078934457      0.21018696125712     -0.00020001640721
  C   -0.55931962084496     -1.25103674359252     -0.00023209688310
  C   -1.76897359372183     -1.95089290473683     -0.00056046483575
  C   0.58763380250827     -2.06259254880810      0.00024510671433
  C   1.87602848339231     -1.54902697760425      0.00058585069227
  C   2.96233489353696     -2.46226573982761      0.00147384973487
  N   3.80858734170458     -3.25454653823907      0.00239630678987
  C   2.06414903219059     -0.16443794391267      0.00037165956481
  C   3.23201632105000      0.62521697893579      0.00054116711796
  C   4.56574854498526      0.18997152299076      0.00059300839023
  N   5.68212114393084     -0.13077144417963      0.00063423240098
  C   2.83136363373098      1.97440735017670      0.00079273150248
  C   1.43523369237941      2.04856964153387      0.00060837131406
  C   0.73381735908437      3.26142954180269      0.00141702497936
  N   0.15498580343573      4.27052412598665      0.00207955198312
  C   0.91218694548961      0.71472244259038      0.00012438124702
  H   -4.67091527760287     -0.12574531795002     -0.00077080732230
  H   -1.17921648403412      2.15881690378220     -0.00017511453305
  H   -1.65367961960649     -3.02665521118035     -0.00054695844177
  H   0.46379445430967     -3.13465086542541      0.00038344446325
  H   3.49697613047526      2.82090302943720      0.00116818423081
