29
Coordinates from ORCA-job ./opt_b97-3c_parallel
  N   -4.02942426000181      1.74403030146545      0.12879190784400
  C   -2.89789667380488      0.97372144829527      0.05740825137563
  C   -1.68097279717780      1.66625319885108     -0.01948883448252
  C   -0.37798378855519      1.18310091368923     -0.05333242876372
  N   0.57943041709566      2.12835377913318     -0.10042617878558
  C   1.87687457545430      1.80586032723124     -0.06405488581213
  N   2.74316244286062      2.86488958620445     -0.06897382507980
  C   2.30816118422005      0.48108882136464      0.02847588913630
  C   3.55765497836368     -0.14988517318357      0.14033544666037
  C   3.37071980485151     -1.53626873792165      0.20586616932147
  C   1.99317389580357     -1.80313088942796      0.12982865943147
  N   1.36284421886553     -2.99855472646342      0.12174983738325
  C   1.30550225114360     -0.54341639294006      0.02168227790124
  C   -0.04912135064827     -0.26418638413312     -0.02576684990824
  N   -0.90798237836711     -1.30430206253421     -0.05679899224134
  C   -2.23652488659302     -1.28836424175367     -0.07559560652099
  N   -2.79245980235552     -2.54248071325986     -0.15127592204430
  N   -3.16062101467448     -0.32934258994415      0.01878231945578
  H   -4.86645433377850      1.25255412255539      0.38864632019230
  H   -3.94876561318424      2.68852255675340      0.45804582062092
  H   -1.74206698780898      2.74691078988106     -0.03200461420606
  H   3.67560939547466      2.69841293950695     -0.40222681248655
  H   2.33158181615220      3.73394534894910     -0.36481979914319
  H   4.51889049499451      0.34045837012461      0.19093070848355
  H   4.14970142625814     -2.27739466053891      0.29558764498664
  H   0.35700586813895     -2.94021741606598      0.22296883312165
  H   1.84048286729155     -3.80921489594372      0.47273491777508
  H   -3.76205536871767     -2.56806796836661     -0.41166403431100
  H   -2.20681869590094     -3.26199080122833     -0.53461988710425
