28
Coordinates from ORCA-job ./opt_b97-3c_parallel
  N   -1.77527627610106      4.18533400954511      0.42776869422656
  C   -1.41028820697355      3.09138943001236      0.29311764850755
  C   -0.84494018972830      1.80472426398795      0.13864808267396
  C   0.56053319388630      1.67345581804370      0.11778797214382
  N   1.34150139435375      2.83647096287845      0.14980083764427
  C   1.15578795993870      0.40169439116033     -0.00317656196840
  C   2.57376980984745      0.30549141413406     -0.31174962660396
  N   3.11537533043985      1.21623637097306     -1.12943647341464
  N   3.45000238713007     -0.57544960505076      0.17197886590412
  C   3.23937731499156     -1.81405001541574      0.53607833172340
  C   2.09089583907678     -2.58660037909051      0.34932635613255
  C   0.83551786098076     -2.11817184372061      0.05862774942869
  C   0.34046099371931     -0.79473632553588     -0.01704410113295
  C   -1.05946491521612     -0.63011906143474     -0.07680509185764
  C   -2.17789683838390     -1.50129901331037     -0.13108427202879
  C   -2.21004775403104     -2.89491052545356     -0.21933447241741
  N   -2.22953265462614     -4.05763816637321     -0.28866321388337
  C   -3.31351859323955     -0.65335064951831     -0.09860101170442
  N   -3.00566841372657      0.64630091590505     -0.01313100099450
  C   -1.65408304322372      0.68158016886245      0.00170039477445
  H   2.10782378721761      2.79639099849787      0.80487570536493
  H   0.79690234079668      3.67067556831134      0.31449926142630
  H   4.11759554221387      1.22329517531235     -1.21648387880277
  H   2.59952784635314      2.05346674936740     -1.36013644674564
  H   4.10013465587694     -2.29926424895313      0.98646364840637
  H   2.19532633130942     -3.65198821296376      0.50724592689796
  H   0.07936458661589     -2.88391968819420     -0.02936699481096
  H   -4.34041454589822     -0.98390243687642     -0.14278822299006
