30
Coordinates from ORCA-job ./opt_b97-3c_parallel
  N   -4.39496348856309     -1.92321877438908      0.22884425731201
  C   -3.37355476416256     -1.37711182392742      0.12732606435593
  C   -2.11499074285593     -0.74778175351191      0.01124253596889
  C   -0.95136117647161     -1.51648879147437      0.06287957919950
  N   -1.04761870738670     -2.90395136876324      0.15023281347228
  C   0.34552355892756     -0.90474445600405     -0.03247754809438
  C   1.40202565451371     -1.81502981603644     -0.26321473469988
  C   2.75794641490182     -1.69758367294986     -0.26507640041881
  C   3.52644631347456     -0.55541870242100      0.03903663287111
  N   4.88006550069937     -0.74516173047134      0.17220003364959
  C   3.02859475170188      0.71882145417306      0.23227726473066
  C   1.73223201715989      1.24689544274377      0.12074563980653
  N   1.64674789503662      2.58010552325096      0.18488132919492
  C   0.46055410317182      0.53470391918743     -0.00465823553698
  C   -0.72549618206721      1.27775111640698     -0.06897936259273
  N   -0.88456716397086      2.64167197955157     -0.09035012216581
  C   -2.21252723998698      2.85901169023898     -0.14757448769836
  C   -2.96213308723340      1.67672268114802     -0.15646616976255
  C   -2.02496629522658      0.64832498522127     -0.10446305889836
  H   -0.48327565639007     -3.31725045267867      0.87499328364820
  H   -1.99756511561493     -3.23584923052688      0.21845473069568
  H   1.05566202286295     -2.80696519416126     -0.52035858168484
  H   3.31445842873187     -2.59693575585518     -0.50214207061271
  H   5.27080149892833     -1.58462303565297     -0.21629449215829
  H   5.47992138085670      0.05704956552423      0.09791008271571
  H   3.78378721976957      1.47239482061801      0.43458553468480
  H   2.48361418594972      3.12983679483474      0.25793883656912
  H   0.70609178790071      3.02271665884105      0.09657975916358
  H   -2.59316297847408      3.86958256151469     -0.18127093116648
  H   -4.03458128168287      1.58180105286905     -0.18549733994840
