27
Coordinates from ORCA-job ./opt_b97-3c_parallel
  N   -5.04638483987687     -2.20421821605199      0.41728079853268
  C   -4.06946694841593     -1.58065170072214      0.32516195129247
  C   -2.88967787059787     -0.82548162975322      0.21061665863669
  C   -2.83071183657793      0.58304796254017      0.03998426733055
  C   -1.48643150222893      0.93505060691758     -0.00264542485148
  C   -0.80138419898354      2.15585022501616     -0.19286262027592
  N   -1.44795328067819      3.29489094704040     -0.49420474744192
  N   0.52430877713931      2.26247979888112     -0.06770783130842
  C   1.28766715345990      1.18531929408742      0.13509980174642
  N   2.54974058909968      1.47492913901279      0.45263957286532
  C   3.60163839990091      0.67931883949522      0.51565189987167
  C   3.80703299989962     -0.63339990480400      0.14038348969382
  C   2.82824627361526     -1.56835740789441     -0.21502141302433
  N   3.24265332274887     -2.81185126778897     -0.60587302664660
  C   1.44628767259526     -1.33742668802345     -0.18092391690827
  C   0.71323643743571     -0.18769583050246      0.06116463235332
  C   -0.69545973230294     -0.25693821693468      0.12910415184312
  C   -1.58251744069674     -1.33902085962808      0.25474644273759
  H   -3.69295992002129      1.22645187863664     -0.03099484185187
  H   -0.92053946559043      4.14988517044718     -0.49850460444015
  H   -2.44880981650198      3.34011458993336     -0.50620761266837
  H   4.48772544851451      1.18483886812961      0.89366429199943
  H   4.83371222434671     -0.97983554619505      0.17381347342673
  H   2.57905918763807     -3.56515763487699     -0.61010256822727
  H   4.18998859288636     -3.08485142448697     -0.41765635482302
  H   0.84136932588590     -2.21112301463293     -0.39501551072235
  H   -1.33727721869346     -2.37658198114226      0.40995985146016
