29
Coordinates from ORCA-job ./opt_b97-3c_parallel
  N   -3.66503403970110      2.61713677514213      0.34764788588572
  C   -2.91028375417796      1.73752104503311      0.22474457945241
  C   -1.99122641150544      0.68496274204290      0.07735791039270
  C   -2.49128574844173     -0.53653354683984     -0.46358030825130
  N   -3.62468072458279     -0.49506268831458     -1.19728170888321
  N   -2.01626579869036     -1.74171351478715     -0.22489743376843
  C   -0.82241352008136     -2.06787796044262      0.23582997468186
  N   -0.76433920534764     -3.29965012857587      0.78320151552047
  C   0.41252944474298     -1.33749737645978      0.08703038943373
  C   1.58709696145313     -2.10212459850421     -0.06793926953767
  C   2.83298196308704     -1.52668834712432     -0.20072122446275
  C   2.94723491149114     -0.14680196245046     -0.18297803121548
  N   4.06468340907953      0.59048493171708     -0.34525052020173
  C   3.63561416439520      1.87194956874113     -0.31537010531649
  C   2.25900671077509      2.00680929394918     -0.11563941468058
  C   1.75696421537288      0.68762647628189     -0.02496293944171
  C   0.48688080045225      0.08943315275163      0.12833807277352
  C   -0.65276974851968      0.92749063662464      0.45111656839102
  N   -0.38725004460591      2.07898111215808      1.07782227953342
  H   -4.11043271116441     -1.35971939820129     -1.35260639873972
  H   -4.14366549541432      0.35943367358964     -1.29093474687015
  H   0.03127049605751     -3.58682532486961      1.31947161879963
  H   -1.61462316974164     -3.82894728829199      0.85237320402452
  H   1.50014447762835     -3.17400052096920     -0.16883693609635
  H   3.71398947100547     -2.13638953253535     -0.35039298714533
  H   4.33880555174835      2.68259593245155     -0.45084514659962
  H   1.72020216811748      2.93894396555524     -0.15843428188827
  H   -1.10862821219495      2.74990293277588      1.27634267800743
  H   0.55864195586284      2.29116648735230      1.34537922300237
