30
Coordinates from ORCA-job ./opt_b97-3c_parallel
  N   -4.58431432201787     -2.47152523915309     -0.01702239888947
  C   -3.65693007704224     -1.76591778798618      0.02327053559281
  C   -2.55436383431233     -0.91615486526892      0.06624216834311
  C   -2.58985620900322      0.49998551400362     -0.03336556165303
  N   -3.72036451429017      1.24303824782670     -0.14645080236488
  C   -1.26128232942999      0.99108214170317      0.01755412492752
  C   -0.73476149872457      2.27532635940516     -0.00057551054024
  N   -1.54980765036308      3.39916179013748     -0.00641371227281
  C   0.65946003536295      2.39926310298612     -0.04349814767557
  C   1.55185059696709      1.32992771766060     -0.01098112399447
  N   2.86330039855834      1.68888182993218      0.00450768998122
  C   3.89040517043041      0.86993904473583      0.04713224165847
  N   4.05460828365139     -0.44890242486067      0.04054444840350
  C   3.03729923730139     -1.32722639374668      0.01940227683766
  N   3.47169922129658     -2.61601127400610     -0.00619434175907
  N   1.71119281558887     -1.20240781541849      0.05606764606749
  C   1.01346645409167     -0.03968185126766      0.04717010371675
  C   -0.37434503452794     -0.13150831609067      0.08365892670477
  C   -1.19144103097140     -1.31021083006116      0.12790343693949
  N   -0.70719223902383     -2.54312075802837      0.19928844944917
  H   -3.63388016005227      2.11813586430730     -0.63791709023515
  H   -4.56714988159018      0.73965861576342     -0.35832993227593
  H   -1.04822149165231      4.26499434540079      0.11175726129986
  H   -2.32579608973286      3.35053173613828      0.63625394119043
  H   1.10972616892025      3.38292585162649     -0.05321962874443
  H   4.84165505961519      1.39758210259971      0.08211664040577
  H   4.44663646960651     -2.75779228024405     -0.19665522512866
  H   2.82532486280571     -3.34062874687786     -0.25563446548097
  H   0.30897030862262     -2.60545931063986      0.20248423281229
  H   -1.30700266128475     -3.34875261207705      0.22173352688438
