31
Coordinates from ORCA-job ./opt_b97-3c_parallel
  N   5.69184019218316      1.60708228975310     -0.14120682049003
  C   4.59359306735424      1.23095581413616     -0.07289297772801
  C   3.25028453140955      0.79319282367694      0.00866468336437
  C   2.26795550207572      1.77231505273215      0.26327921215869
  C   0.91144973102018      1.64854544914042      0.29754854859044
  C   0.03893179675239      0.53674076526913      0.08358382371456
  C   0.44867078709597     -0.86348864473917      0.06184152081138
  C   -0.52960393276860     -1.85096499568128      0.10221371918923
  C   -1.90996202571503     -1.59712713080409      0.09108316756832
  N   -2.80526203113655     -2.63924048336209      0.12254895414662
  C   -2.31643579435705     -0.27236698597461      0.05932956952041
  C   -3.56843592637911      0.38012192459079      0.03786153223784
  N   -4.80384664306996     -0.18625087815716      0.14206291689039
  N   -3.43966166525057      1.71505127159619     -0.14055443351621
  C   -2.12166855718315      1.96846700842791     -0.18552332982106
  N   -1.68958004376549      3.23441702905465     -0.37757668878796
  C   -1.33115944216208      0.76922698037492     -0.01555893410071
  C   1.82738683977787     -1.29606856815992     -0.05592138453974
  C   2.02933632503260     -2.69552175191821     -0.17928489877067
  N   2.19340137446790     -3.84250111621034     -0.27832561059950
  C   3.01136017695593     -0.57186858238858     -0.11850183600818
  H   2.65050362978460      2.76541222930158      0.46381420402090
  H   0.40138055746761      2.55275344460114      0.59595084136575
  H   -0.21556036195134     -2.88449039290310      0.10597538366085
  H   -3.66177919649931     -2.49693830094836     -0.38751031730481
  H   -2.41277828759275     -3.55118873265761     -0.04394082672176
  H   -5.54737679121505      0.48334156325554      0.26330354806399
  H   -4.87948372676093     -0.97997576355104      0.75727598431743
  H   -2.39480655032910      3.88098753626473     -0.69210151491906
  H   -0.77347341098184      3.37111989912521     -0.76907542227285
  H   3.89599179513950     -1.17688745234532     -0.26697996324137
