34
Coordinates from ORCA-job ./opt_b97-3c_parallel
  N   5.65229171674535     -0.66512937229444     -0.13400590174827
  C   4.50234156975484     -0.47409577971922     -0.06616244631879
  C   3.12358277040112     -0.23451904265081      0.00500341381528
  C   2.70590143633931      1.11895673838549      0.01234931962438
  N   3.68263841523517      2.06347682996105      0.03300462498253
  C   1.39555513503756      1.60274845285698      0.01696950830453
  C   0.16434369564549      0.95669337094686      0.01078688710060
  C   -1.01368822659331      1.78069400468094      0.00450683654305
  C   -0.88303878923140      3.18034356876136      0.03912632787526
  N   -0.83638411159038      4.34409064303765      0.07152717539631
  C   -2.33547917637442      1.27377218678205      0.00833749290974
  N   -3.42808106684558      2.11573868700939      0.00244667758216
  C   -2.47681235139046     -0.10267753252370     -0.01542580627415
  C   -3.58319011615241     -0.98914999930741     -0.07712335525476
  N   -4.89535809954115     -0.65438454732665     -0.18661308277840
  N   -3.21155264020886     -2.28742298572081      0.00233286289105
  C   -1.86662121793497     -2.27807209295993      0.07798264956345
  N   -1.13306536259794     -3.38282015065482      0.16103224556927
  C   -1.32489699053001     -0.94101494109817      0.04431709513078
  C   -0.01171428655289     -0.49504392577534      0.04665047804029
  N   0.94658043196194     -1.45701669589202      0.08386645117548
  C   2.26014778154026     -1.37239908610565      0.06111285636442
  N   2.88726144586124     -2.58622607465364      0.13235718941535
  H   4.64362140287547      1.80582245805947     -0.10632272945980
  H   3.44323979507408      3.02249883127382     -0.13425486110655
  H   1.33862360043445      2.68347212865350      0.01934564280966
  H   -3.21796208811613      3.09082799398890      0.15432443865392
  H   -4.19509955130638      1.80799018135281      0.57852837978505
  H   -5.50274387726336     -1.42795059095761     -0.40510436289742
  H   -5.10227071974556      0.18821461951100     -0.69767333803413
  H   -1.57153013129934     -4.28092810226964      0.25731187881226
  H   -0.13549012500595     -3.23943605994382      0.25376936481310
  H   2.32617924609022     -3.38352138066003     -0.10392987691521
  H   3.86517919098509     -2.65206334174891     -0.09039668057089
