32
Coordinates from ORCA-job ./opt_b97-3c_parallel
  N   -4.49651870626890      2.75570888853941      0.82019044713072
  C   -3.64364446284522      2.00207084451072      0.57754476299704
  C   -2.65960687634198      1.03747293147367      0.25961111999652
  C   -1.34825078176532      1.50943193907772      0.17514166691557
  C   -0.12135441466778      0.90640472550967     -0.04629600827140
  C   1.00254307839172      1.77364686055432     -0.19557866407566
  N   0.82208749353612      3.12107854630125     -0.37668920490764
  C   2.32213543298685      1.27197697580414     -0.10778938050197
  C   3.40700647573645      2.16219436246066     -0.26146276161202
  N   4.23657156467138      2.96292503287726     -0.40348076910043
  C   2.54249543484061     -0.08914703563616      0.09616517572233
  N   3.71497841468881     -0.71166858979692      0.20248202652224
  C   3.38758167821731     -2.03340430784792      0.30173186342544
  N   4.36375440695662     -2.93926830232841      0.46439889192928
  C   1.99143120945164     -2.27560748230774      0.25279039985273
  C   1.40869325307939     -1.02362022537326      0.11921917665702
  C   0.08514697886939     -0.54783410491769     -0.02067435534723
  C   -0.92441890275500     -1.48300138658065     -0.16505542700924
  C   -2.31796123304254     -1.40168186020652     -0.25341418633190
  C   -2.99495392549509     -2.61504092104538     -0.51536877542594
  N   -3.60339590691944     -3.58484550314701     -0.72381190101707
  C   -3.14983349342353     -0.27262654706930     -0.01839076783935
  N   -4.47718080689765     -0.45131840707775     -0.04246040292460
  H   -1.29112755669479      2.57443303936026      0.35947533231308
  H   0.07737680159771      3.41319039044065     -0.98325931951689
  H   1.65902011469326      3.66872722672451     -0.49479062986278
  H   5.31523768978936     -2.62860794832315      0.38022534751020
  H   4.17779978630511     -3.92092460623125      0.38655381163151
  H   1.51246346658398     -3.23600403920635      0.34745317218804
  H   -0.56537450880161     -2.50016365992516     -0.24839506249622
  H   -5.10510810602352      0.31298146866730      0.13923717557087
  H   -4.87327117025410     -1.36151843648098     -0.20447519291958
