30
Coordinates from ORCA-job ./opt_b97-3c_parallel
  N   -5.28318469404851      0.42029651724624     -1.19454194044388
  C   -4.19381080670443      0.49987697712239     -0.80019842497240
  C   -2.86381609439729      0.60246724719561     -0.31073307695907
  C   -2.39819670020327      1.89023752808064     -0.01011921989030
  C   -1.17984036281185      2.24856332986083      0.49425552242971
  C   -0.01665027004053      1.47979219488381      0.69055865385163
  N   0.96963640481988      2.07540637379435      1.37991235357367
  C   0.22885451330377      0.13065091247459      0.22867579646786
  C   -0.84675189159729     -0.85444211549182      0.20861511967508
  C   -2.17767702814313     -0.59123227463708     -0.10840009813571
  C   -0.50033639467873     -2.24847426453829      0.34025486974181
  N   -1.52284210355406     -3.17920931835131      0.50510670552564
  C   0.80721274565351     -2.65674104337172      0.19655737644588
  C   1.81228384936911     -1.73597466595623     -0.08464412218098
  C   3.17368475918446     -1.90784087258445     -0.35170080122175
  C   3.74374276805663     -0.64657585856932     -0.52064708092374
  C   2.77210169439872      0.35479675409993     -0.32700117026059
  C   2.98168840379296      1.71143733568422     -0.57806965169457
  N   3.13413781474002      2.85508826993590     -0.75017376346140
  C   1.52203298940670     -0.30845784863089     -0.04390618499711
  H   -3.11027681920301      2.69354473962881     -0.14599839300118
  H   -1.08257500367095      3.29098974880981      0.77408250570129
  H   1.86260015040029      1.62534531995526      1.46818314170628
  H   0.96953545500452      3.07117875821982      1.51206016691235
  H   -2.76146112617749     -1.47947527655101     -0.30988410467578
  H   -2.17010988907322     -2.97812320723628      1.25056118026357
  H   -1.19995813925692     -4.13069353615665      0.56193095736343
  H   1.05232352754405     -3.70917010365998      0.28158414659393
  H   3.68607687590296     -2.85240778537002     -0.43830315443588
  H   4.76769028938075     -0.44403037238914     -0.79276404049844
