27
Coordinates from ORCA-job ./opt_b97-3c_parallel
  N   0.67612134502142     -3.21599427207989      0.79761624587653
  C   0.08427474095069     -2.23684556999660      0.56093479712141
  C   -0.65138368516548     -1.08470836869646      0.26796396504212
  C   -2.07926716178349     -1.25773601247395      0.27205925747347
  N   -2.56220526681707     -2.45210406821166      0.67369674460011
  N   -3.00961008557593     -0.40829090318849     -0.12799256096646
  C   -2.77956540028909      0.87968048089409     -0.40218613101418
  N   -3.72865477532224      1.46286694928574     -1.16927935833703
  N   -1.84107732135186      1.71661867068600      0.03223249819814
  C   -0.59401550589180      1.44077141076218      0.36909273167523
  N   0.09583287835730      2.47904042866175      0.88625302875490
  C   1.41931767792467      2.46223533056749      0.85864015862423
  C   2.12961497927481      1.42809352222594      0.27401322367825
  C   3.48197815071635      1.22307212815567     -0.05579677042031
  N   3.69419515789992      0.03008932369987     -0.61881275881607
  C   2.48973865394189     -0.61050209974941     -0.63834255476734
  N   2.41535850911561     -1.80449276549741     -1.23719965408360
  C   1.44079488966371      0.22544736243167     -0.09136286798125
  C   0.06563160520302      0.13445532965824      0.12538311057811
  H   -3.54554198875087     -2.61577357548942      0.56238799834863
  H   -1.96247980696564     -3.21873107104773      0.91769452834372
  H   -4.57039799598499      0.95039764799091     -1.35764901985701
  H   -3.74970950209060      2.46547708186682     -1.20540969345992
  H   1.92199539827006      3.32126706512875      1.29132250562287
  H   4.30096879497288      1.91190110409811      0.09453487658782
  H   3.30454086809876     -2.19296580034339     -1.50872834813454
  H   1.71062774947780     -2.47091450883796     -0.96181671488698
