29
Coordinates from ORCA-job ./opt_b97-3c_parallel
  N   -5.56814289891321     -0.56434794800202      0.79492140105153
  C   -4.51932305075026     -0.15238588954600      0.51272614782681
  C   -3.23734615823136      0.34880822227135      0.16303347733136
  C   -3.16547347713148      1.70995843729157     -0.13545940376140
  N   -2.13539746122852      2.44946120702671     -0.52532787431349
  C   -0.86479944082340      2.08083557448609     -0.53072348494290
  C   -0.18255040205077      0.90465082587655     -0.16575265473506
  C   -0.83681692684675     -0.42366594393209     -0.08484687504755
  C   -2.18673425219156     -0.59297844195362      0.12393430690927
  C   -0.02800581402520     -1.60025419090073     -0.15897484589465
  N   -0.62164210562680     -2.84215276839975     -0.24405693357730
  C   1.37032741927472     -1.49976859422039     -0.06693204551573
  C   2.15119807034829     -2.67500528204286     -0.13405476115634
  N   2.77177406320957     -3.65556103063574     -0.19541921427592
  C   2.00386072945004     -0.25708802512457      0.07569069569835
  C   3.33104099251174      0.09045524304924      0.18632456111858
  C   3.39240929919525      1.51723193731182      0.20618159265208
  N   4.54105251694107      2.23147217937874      0.28744594169278
  C   2.09552982235715      2.04943638807394      0.09019918183679
  C   1.20044940982811      0.97396139779355      0.00138150884212
  H   -4.09775698015129      2.26015208519774     -0.05652408836310
  H   -0.20692181288454      2.87250042217568     -0.87748958668323
  H   -2.50139676090128     -1.60489741842497      0.34022313821765
  H   0.01362001576702     -3.62117156774669     -0.30897973043010
  H   -1.38448367333918     -2.92823507623686     -0.89341900041517
  H   4.17327288138995     -0.58111444795724      0.23223383283706
  H   4.48852461355984      3.21430558686778      0.48513211455591
  H   5.37281188837850      1.77369971985641      0.61367047994793
  H   1.85091261948382      3.09782087596897      0.13576434559464
