29
Coordinates from ORCA-job ./opt_b97-3c_parallel
  N   -4.35328373161808      0.62534947610340      0.43697936104763
  C   -3.06139520531136      0.25338489922614      0.17527340960370
  C   -2.73749168810635     -1.10735300313668      0.28120984387823
  C   -1.49983701736285     -1.66989520982380      0.10232334692154
  C   -0.22879443685099     -1.11075013652440     -0.09566731580747
  C   0.86510504891515     -2.03499110029495     -0.19610048237803
  N   0.58551735242022     -3.40825834526148     -0.35501301377488
  C   2.16449652899982     -1.60195405919500     -0.05808395287687
  C   2.45349135719850     -0.26023714759825      0.17375012487681
  C   3.65252199040169      0.41383299472178      0.37290952883092
  C   3.35621810785175      1.79032862497112      0.46548773622129
  C   1.99323407557940      2.00545551239810      0.29095305226997
  C   1.37064166261976      0.73450916333800      0.11805926050878
  C   0.05554438051417      0.30855040777924     -0.07569313702202
  C   -0.98122295325000      1.27171816681165     -0.42579600854084
  N   -0.55569598818441      2.41624848922506     -0.99763913663654
  N   -2.29272570561758      1.24678774274498     -0.24672590863580
  H   -4.51091999285476      1.61390745644723      0.52598559427867
  H   -4.91093547781433      0.03504221570350      1.02672703537842
  H   -3.55004699365301     -1.78165493384928      0.52350833350292
  H   -1.48318262034429     -2.74572915475249      0.21967439681596
  H   1.43019384853404     -3.95792100772186     -0.37562400026775
  H   0.04619373954934     -3.60953139344973     -1.18471756987913
  H   2.97580393219996     -2.31891065078279     -0.13247378997057
  H   4.63042879905043     -0.03629240435109      0.44468247563212
  H   4.08122109309106      2.56938668260272      0.65419144639452
  H   1.50151399608005      2.95610382983527      0.41286052600044
  H   -1.25343219197776      3.05780868415187     -1.32749329322721
  H   0.39908592854036      2.51027369268177     -1.29901869494481
