28
Coordinates from ORCA-job ./opt_b97-3c_parallel
  N   1.25304632461549      4.46240647604632     -0.46877792466402
  C   0.90008282404449      3.36417176384413     -0.34210132682347
  C   0.41553321390639      2.04424837399470     -0.18383084470823
  C   -0.96646842278182      1.81702875607029     -0.12643136486656
  C   -1.51823818665736      0.54747918778073     -0.01711554926125
  C   -2.94362903263519      0.45430472392237      0.19601064053061
  N   -3.55974898376592      1.49943479535356      0.77889821843237
  N   -3.79230630503845     -0.49578277886542     -0.19519427219447
  C   -3.52607896644137     -1.75021965741732     -0.46967100647834
  C   -2.34751625865684     -2.47059546382946     -0.27690088198413
  C   -1.09494647476140     -1.95547326100370     -0.03499166553616
  C   -0.65229733122385     -0.62195365095136      0.01145309509893
  C   0.74038639947952     -0.38094764929126      0.04900927424987
  C   1.88332564563375     -1.20475027051050      0.11071954703156
  C   2.00573265063159     -2.58685040203981      0.21450505856925
  N   2.16054844197255     -3.74035393925410      0.29558256235946
  C   3.00143394721775     -0.30451718403215      0.04549974610487
  N   4.29383509767444     -0.66097058693323      0.12140788579286
  N   2.62978286965245      0.98188398793450     -0.06260326063135
  C   1.28460219793423      0.96163078029560     -0.06076653399303
  H   -1.61436145624638      2.67562813537503     -0.21417057560510
  H   -4.55823521816617      1.45225307695107      0.88404894927548
  H   -3.04898372532858      2.18444348696984      1.30280339563918
  H   -4.37816914904313     -2.30449399740203     -0.85292339279933
  H   -2.42146890595298     -3.54350956555023     -0.39531842649616
  H   -0.31342167864721     -2.69739886789310      0.04680433811756
  H   4.98564963665095      0.03855096655123     -0.07909802064035
  H   4.55674874163237     -1.62469988771669      0.02417688537938
