29
Coordinates from ORCA-job ./opt_b97-3c_parallel
  N   -5.29500640383507      1.76706391571257     -0.36755411616040
  C   -4.23995400302357      1.28349825728780     -0.27089719454735
  C   -3.01513742126427      0.61847208797967     -0.15482662637771
  C   -1.72985533350746      1.15820333778706     -0.15437509565748
  C   -0.79491768676062      0.10478497570244     -0.04117854890864
  C   -1.52940267461193     -1.12714871047004      0.03968412381686
  C   -0.84471152738384     -2.32488159023384      0.18867068527779
  C   0.53141656293764     -2.32025546004023      0.21926568700313
  C   1.31236375040758     -1.14573538567316      0.09769567283654
  N   2.62360517979668     -1.36294301079291      0.02684216848326
  C   3.61511578444576     -0.47093235581259     -0.07368938459416
  N   4.84157042974481     -1.07526326030700     -0.18227820196265
  C   3.58565712695075      0.91924449182174     -0.02378657734167
  C   2.44013700914865      1.71653404498764      0.08447171271757
  N   2.63528984256578      3.07284938241411      0.15207146482265
  N   1.15539026715375      1.38234371622440      0.08171359167525
  C   0.60857074203197      0.16579560885828      0.03338413459235
  C   -2.90391320676436     -0.81258802181307     -0.03267931552925
  N   -3.96063679255161     -1.64814658565081      0.04716515422265
  H   -1.48958660028716      2.20379579191254     -0.23988053271555
  H   -1.36972926662444     -3.26956083946145      0.27621652991830
  H   1.08244939610252     -3.24519438562927      0.30275997930386
  H   4.80822047382122     -2.05572413875272     -0.40075070566710
  H   5.60352671285448     -0.55835234840505     -0.58202695170993
  H   4.53905213138624      1.43312442059616     -0.06200980623828
  H   1.82121357882404      3.60088784659464      0.41457244301714
  H   3.51305717666092      3.41891792724863      0.49482680903439
  H   -4.87287868616734     -1.29304545703645     -0.18328138710181
  H   -3.82636455115107     -2.63261890834907     -0.09167863330977
