26
Coordinates from ORCA-job ./opt_b97-3c_parallel
  N   5.45447854181625     -0.94166531845760     -0.09789157555363
  C   4.34339172528920     -0.60114450561076     -0.05624962776806
  C   2.99049906961016     -0.18880858501483     -0.00785702967992
  C   2.72625451691639      1.18166102940074     -0.14977584707393
  C   1.52639218432684      1.84419323822157     -0.11202095294788
  C   0.18284795992532      1.40507958119129     -0.00169083132037
  C   -0.79692475979740      2.41204367575834      0.02703048619309
  C   -2.15573845971284      2.14826491085863      0.06856880965749
  C   -2.58255918460473      0.83756879616756      0.04054157040055
  C   -3.84325640492235      0.21802978735979      0.02385620074293
  N   -3.74209931171501     -1.11957883886766     -0.06360587320318
  C   -2.42056524211719     -1.41337739341730     -0.09026331594868
  N   -2.03628613381994     -2.71239816287109     -0.18982260150453
  C   -1.61178702099277     -0.23325731672618     -0.00501482850182
  C   -0.23634828601648      0.00652996164504      0.05848447433108
  C   0.65671897211200     -1.08458385929356      0.24615175739107
  C   2.02396419318913     -1.18041633280921      0.21769555452837
  H   3.59812214098127      1.80896493367725     -0.28440412512844
  H   1.61814383900160      2.91939033983575     -0.20782300751469
  H   -0.46252315791888      3.44028390420712      0.01719384825830
  H   -2.86517093368212      2.96518018657853      0.10556228974550
  H   -4.81049381354887      0.69681737648824      0.05370018857394
  H   -1.16092856372234     -2.91198377707321     -0.64393128506208
  H   -2.78627856251383     -3.33874700673296     -0.43778173386764
  H   0.16913403445726     -2.01339987289560      0.50238579329172
  H   2.41876776495932     -2.17361946171991      0.39193531546081
