30
Coordinates from ORCA-job ./opt_b97-3c_parallel
  N   2.58019123356573      3.60779474357979     -0.34483918048823
  C   1.97252150603082      2.62369866783960     -0.23073584381395
  C   1.14124241132090      1.48996693010565     -0.09539652636089
  C   -0.25986455882392      1.66417687160175     -0.06691054341686
  N   -0.77115691696746      2.98057670684251     -0.07169708654299
  C   -1.11844767907155      0.55640897067521      0.01038083662353
  C   -2.53920493484063      0.76191203998445      0.25503122534427
  N   -2.91926900961371      1.76785235483075      1.05729075180887
  N   -3.53836061186386      0.07489415603769     -0.28848766161446
  C   -3.44982464769709     -1.15327501812023     -0.76140365190234
  N   -2.61257065552839     -2.11685981445909     -0.46673351056372
  C   -1.42378588587972     -1.94345369470126      0.12241926019707
  N   -0.95623876884261     -3.03769679406235      0.73907539634709
  C   -0.57159729489276     -0.78686226881891      0.03553478083835
  C   0.82364875800392     -0.95789016616198      0.04554720077897
  C   1.71695723782878     -2.04444812585144      0.03130901594605
  C   3.00264986047860     -1.47078638385536     -0.03765209819778
  N   4.19637767787863     -2.12664662885746     -0.03450625674403
  N   2.99073851773983     -0.11303511395401     -0.05418384793078
  C   1.69411659722117      0.21374047465578     -0.01693251827624
  H   -0.03635167424837      3.66810795072514     -0.16056998656235
  H   -1.44850494729263      3.13472669284324     -0.80520192834491
  H   -3.89926962003462      1.99479747830126      1.06629275464823
  H   -2.25124107760730      2.49720369807175      1.26928646112259
  H   -4.26811257400871     -1.44526882491869     -1.41311103867967
  H   -1.53397068654233     -3.85869850360698      0.75844497497841
  H   -0.11214940960834     -3.00383284993684      1.28188488334479
  H   1.50605920569074     -3.09900269986592     -0.01394819712410
  H   4.20829011353873     -3.07312090072264     -0.37015078049664
  H   4.98218765626491     -1.56735352520091     -0.32114865301850
