27
Coordinates from ORCA-job ./opt_b97-3c_parallel
  N   -3.03428224500700      2.87371389150022     -0.00204690172800
  C   -2.45324362357224      1.86501002690822     -0.00199545514210
  C   -1.96860441519967      0.53432744687402     -0.00008891586035
  C   -2.98670685315716     -0.47165264923953      0.02523297327823
  N   -4.27052665556916     -0.05050903384869      0.08309189910187
  C   -2.75956979164981     -1.84611679715118      0.00374281367834
  C   -1.54590160553562     -2.52338970210473     -0.03506211295826
  N   -0.29261144169176     -2.14096775862616     -0.04141829529690
  C   0.18676694402097     -0.87506510600658     -0.01991453063260
  C   -0.56195323358370      0.39933506774126     -0.02443169670273
  N   0.06630601146308      1.59699630054271     -0.04445958791217
  C   1.39230887291601      1.66983767290394     -0.03597400192067
  C   2.19929546207039      0.55690915937296      0.00042976792793
  C   3.60617120289245      0.34836767906249      0.01966500496771
  N   4.56888307603044      1.30276141123806     -0.02093335471734
  C   3.83086972890739     -1.05582675967219      0.02489989368969
  C   2.61107679219407     -1.70656985745739      0.01390730871205
  C   1.57256453065310     -0.73611654570102      0.00243656146424
  H   -5.01937814643063     -0.71267196883211      0.01787233815134
  H   -4.49954984124488      0.92659542314011      0.02537921582655
  H   -3.64011067479104     -2.47732246308931      0.01666709845468
  H   -1.65433520728633     -3.60678342941385     -0.06152792610450
  H   1.79723439796804      2.67831131533049     -0.06236190586143
  H   5.50828230125463      1.04240628405928      0.22045891589215
  H   4.32314380106295      2.24857169496397      0.20982699862129
  H   4.80289597834835     -1.52525921941257      0.03393979582260
  H   2.45480138463712     -2.77223061138239      0.01893082194836
