31
Coordinates from ORCA-job ./opt_b97-3c_parallel
  N   -4.20412016596118      2.05871317516671     -0.68281151463932
  C   -3.27864232844870      1.40369187536993     -0.42877445121340
  C   -2.09196793100976      0.69806536466765     -0.12988009074228
  C   -0.87226388259405      1.39175933106120     -0.07266459061848
  N   -0.90186742429037      2.79216845457156     -0.23597144376792
  C   0.35825059605842      0.72174388215600      0.16921788035514
  C   1.52034039351723      1.53647418329194      0.53734053600595
  N   1.27536102859894      2.63392747867281      1.30828096786930
  C   2.83438749073261      1.29922456421749      0.20096696442566
  C   3.41863789967092      0.13599719127118     -0.32011877073685
  N   4.73760280946591      0.24182709841397     -0.70084924036476
  C   2.84833928353331     -1.12517671270390     -0.33874266094973
  C   1.58852404013101     -1.53980233147580      0.10250408402683
  N   1.42831985947815     -2.85163572900315      0.32406500923135
  C   0.38660979662885     -0.71407539134876      0.20223904054775
  C   -0.85426461705773     -1.37449839535437      0.22439914432825
  N   -1.14965760866296     -2.70900027329081      0.30545501033859
  C   -2.49350177058594     -2.74130358257440      0.21541630031888
  N   -3.12012361146070     -1.56108871626077      0.07022131047866
  C   -2.09609483093844     -0.68139536560464      0.07618948460959
  H   -1.82415650995705      3.12792152634356     -0.47432118908665
  H   -0.24087549594164      3.11957335994925     -0.92568836881264
  H   2.02859818099045      3.28690855011224      1.43735013124661
  H   0.35153510251388      3.04343379538810      1.25176579438629
  H   3.53305585239513      2.09228191435573      0.44515976129121
  H   5.11956006950891     -0.51209796091090     -1.24378898484709
  H   5.05509481922384      1.14818587529913     -0.99510626895591
  H   3.50955534980322     -1.93080639173257     -0.64022525489899
  H   0.46319862840707     -3.22526556119320      0.39222204320965
  H   2.19692067702425     -3.47212684492820      0.14162720889800
  H   -3.03696275697324     -3.67310052543118      0.26718283846581
