33
Coordinates from ORCA-job ./opt_b97-3c_parallel
  N   5.92953031202531     -0.02563404887506     -0.24431478668689
  C   4.76929312394018     -0.11702568014275     -0.19515990361608
  C   3.36320304837712     -0.16323146631397     -0.11078433193979
  C   2.75292749264710     -1.41062727719975     -0.22750686261414
  C   1.43651725588625     -1.79950444528590     -0.14744806918496
  C   0.24564237590328     -1.06251376829783     -0.00371588876971
  C   -0.97130318190703     -1.79326022315185      0.06113152035957
  C   -0.95929701719832     -3.20063975488547      0.04034756955111
  N   -1.03959319240407     -4.36215834206252      0.02066235044318
  C   -2.25616906306279     -1.17843301214319      0.10260218584008
  N   -3.39261697395899     -1.93707910568414      0.16906045265009
  C   -2.29195750664398      0.20246245082609      0.08356275470489
  C   -3.34421618127282      1.14672248751021      0.06425081167888
  N   -4.68554196672233      0.89633921351649      0.19417318052679
  N   -2.88997161911336      2.39598738797378     -0.15361279478676
  C   -1.54458012192862      2.30567557992782     -0.23388768863824
  N   -0.81154718844660      3.43113279933144     -0.46525730182224
  C   -1.08137908748435      0.96718953558311     -0.04803578831085
  C   0.19678032124063      0.39524094119540      0.02797047779921
  C   1.30998684795514      1.24235782084621      0.21584215927445
  C   2.68497095239911      1.06289162794673      0.16366708167586
  N   3.46561827679966      2.17047459959888      0.34734373794558
  H   3.44711665008813     -2.22600769462888     -0.38837445738688
  H   1.29677538385592     -2.86827009847067     -0.23540684872513
  H   -4.20770122036050     -1.54316651228512     -0.27161993944280
  H   -3.28356387678905     -2.92414914807543     -0.00445792080403
  H   -5.23263805425549      1.73934512991519      0.27921839274694
  H   -4.92948666881793      0.21172516899353      0.89295677677648
  H   -1.36211616846910      4.20177231598924     -0.81077221007910
  H   0.06006476086054      3.30343892113870     -0.95429304781198
  H   1.03187842817943      2.25214691133016      0.48680442691208
  H   4.44594865100447      2.04668005945322      0.53446858237537
  H   3.04863148687110      2.98235543992552      0.76444266686085
