30
Coordinates from ORCA-job ./opt_b97-3c_parallel
  N   5.19993273865013      0.02165810293150     -0.90810749351545
  C   4.09903383287490     -0.22387186715427     -0.61886284778033
  C   2.75859167692338     -0.46647191230429     -0.25308941685650
  C   2.37911729001003     -1.81215568322365     -0.08904647833169
  C   1.17054321600290     -2.36453433182706      0.21258727970031
  C   -0.12676949904686     -1.79768310368374      0.27383930209324
  C   -1.18943157013386     -2.69301275130972      0.43150741361934
  C   -2.51625338666551     -2.30712340592175      0.33632902948052
  C   -2.80732385748922     -0.99521303850381      0.04435592971536
  C   -4.03947756969215     -0.38136285880316     -0.30138249266523
  C   -3.79998914410601      0.92288280951863     -0.66540409844102
  C   -2.41238443599503      1.19708976566433     -0.52587321409201
  N   -1.86799998850953      2.36500212451852     -0.91227056339000
  C   -1.75416780588875     -0.01785510389510     -0.06618666906945
  C   -0.41534827466404     -0.37041299140994      0.15393369843461
  C   0.58437519026210      0.63997871937561      0.40017769319095
  C   0.13778475147281      1.80950054089547      1.02192079456308
  N   -0.19404738069835      2.82029294344859      1.50768550515473
  C   1.97802875602726      0.66176518043765      0.07802369216477
  N   2.59949648069986      1.86463671616124      0.09274775616680
  H   3.19116640003509     -2.51685629111845     -0.21510699457266
  H   1.18297835412613     -3.44193351420556      0.31897809329564
  H   -0.95110675820892     -3.73475502717027      0.59690882763538
  H   -3.30625199316766     -3.04070477149110      0.43327516493682
  H   -4.99879149827573     -0.87568399014946     -0.29957321991540
  H   -4.52953800335997      1.64360522697211     -1.00102953559964
  H   -1.06859529159348      2.73702971443436     -0.42163893747810
  H   -2.51432909537550      3.07192942723867     -1.22194471424661
  H   3.60299762101955      1.90682204766370      0.05567908009635
  H   2.12141586296641      2.67997608921091      0.43130128590636
