32
Coordinates from ORCA-job ./opt_b97-3c_parallel
  N   4.79192541684580      2.30434978257224      0.78525838713391
  C   4.07140289985734      1.44903089540452      0.46377826873432
  C   3.15125087071056      0.43784609488409      0.09795560764668
  C   3.71195190698365     -0.69467769377792     -0.49856729313605
  C   3.10967175239650     -1.88911128450224     -0.80682152876671
  C   1.81498796506636     -2.27698736917067     -0.48626073455409
  C   0.72718327900527     -1.55188876251745     -0.01931559108519
  C   -0.45330603956106     -2.32241932279949      0.27325731716888
  N   -0.33976576514539     -3.69978022905840      0.42634295033317
  C   -1.69601751345370     -1.72438391734120      0.29883686089155
  C   -1.82048061973519     -0.36805838717458      0.04914056623339
  C   -2.95958606957507      0.43976516771269     -0.03814942713777
  C   -4.29222399018659      0.03994607565439      0.03423415306918
  N   -5.41729017495928     -0.26224109878493      0.08463295714356
  C   -2.51227702862547      1.78852138288632     -0.25121978600022
  N   -3.35755966606280      2.84173876693582     -0.38988135345109
  C   -1.11835782771330      1.81728391643948     -0.24190243796541
  C   -0.64193575838988      0.48736752934476     -0.07235821896546
  C   0.63336708517978     -0.08532336549200      0.01206061936843
  C   1.77275182513304      0.74492300906713      0.30508716467946
  N   1.51577649052671      1.96306625620332      0.81564104246979
  H   4.77272284853063     -0.62158258362071     -0.70260832815030
  H   3.73598041382746     -2.64038723136115     -1.26883285398290
  H   1.59916614764448     -3.32082945333367     -0.67644467127002
  H   -1.21259415257203     -4.15997841056867      0.62468649227873
  H   0.37979519133449     -4.00389221502108      1.06157713049694
  H   -2.58146988761168     -2.31660912245393      0.49746097450592
  H   -2.99581399885889      3.69197788385734     -0.78265938133930
  H   -4.31516150525965      2.64239978373342     -0.62405993376390
  H   -0.53550886359315      2.68786372411825     -0.49152503061455
  H   2.26735778928552      2.54998162506801      1.13474723164749
  H   0.58277170647107      2.17772116650054      1.12783964388206
