32
Coordinates from ORCA-job ./opt_b97-3c_parallel
  N   -5.22294322172693     -1.15439334387432      0.55285042268952
  C   -4.16682200112745     -0.69665908914455      0.37094991772487
  C   -2.88947846215780     -0.15898261067555      0.13496678593784
  C   -2.83534765170178      1.14155241252024     -0.45966676476146
  N   -3.91136323728435      1.55646565915341     -1.16205128351743
  N   -1.87423293895826      2.02672584527804     -0.33381986128700
  C   -0.66309099637710      1.85721778052877      0.19035996354528
  N   -0.08444296693025      2.96506692513474      0.64719982746746
  C   0.14563666156005      0.64133678311482      0.16229126818476
  C   -0.39642530310171     -0.67835256507837      0.06656432172913
  C   0.48336677850561     -1.76707434307727     -0.20452120201939
  N   -0.02281499728744     -3.08319284544364     -0.35961020939225
  C   1.85477640603234     -1.58737124473828     -0.27961695173327
  C   2.40187440617356     -0.33978259296562     -0.05363988858099
  C   3.72131653234972      0.17395602377622     -0.01311916527915
  C   4.90521264125846     -0.54904538820710     -0.18924066437229
  N   5.87490075820023     -1.17446079689889     -0.34171857080125
  C   3.57100221761261      1.54944998079962      0.24341291486494
  N   2.28547801485365      1.92005750249872      0.35602443752154
  C   1.54299018286313      0.78403999508295      0.17370625747384
  C   -1.77853191077389     -0.96016637730749      0.44424392623516
  N   -2.00474833502231     -2.09179356139271      1.13347841501380
  H   -4.75023977391504      1.00618159450287     -1.19849101322330
  H   -3.97693206772230      2.53534488680523     -1.37557030282232
  H   0.94728321754334      2.95781759293556      0.73991353128412
  H   -0.57409375452163      3.82697724346807      0.47233656684834
  H   0.71436223849953     -3.73073855628312     -0.59254374540139
  H   -0.74177514748393     -3.14737973936939     -1.06763232230224
  H   2.49419516628958     -2.43119238077689     -0.51126383546423
  H   4.36766277781598      2.26831930618323      0.35737996239785
  H   -1.29422959284694     -2.81316058171429      1.10709667355950
  H   -2.95241097280651     -2.38559408062861      1.30459422628829
