26
Coordinates from ORCA-job ./opt_b97-3c_parallel
  N   5.74755986453240      0.85514227192011      0.30127068726583
  C   4.62024267027588      0.58458458639077      0.22875413243277
  C   3.25933615162416      0.23980785226105      0.14106986366816
  C   2.76145231165988     -1.09543829017241      0.07921588827701
  C   1.37702681495797     -1.02421116597593      0.00779166414401
  C   0.37913300684107     -2.00626856687707     -0.13727812431847
  N   0.67149568696485     -3.31384144072336     -0.21135719670488
  C   -0.96823818050736     -1.59376728766554     -0.18792792811987
  C   -1.36156083557679     -0.27339011552179     -0.10702275628944
  C   -2.74127137593114      0.03244381959368      0.09202093227884
  C   -3.62933650321065     -1.06405670291717      0.25024515177272
  N   -4.35586851123029     -1.96205843923316      0.37272166572444
  C   -3.35443824659808      1.28335472541487      0.23785541717880
  N   -2.90681789426566      2.50764385434926      0.02624767090183
  C   -1.64959868682105      2.79340204350039     -0.31006939060591
  N   -0.52684858751852      2.10731827326191     -0.27381077180476
  C   -0.32652956726424      0.79849266279035     -0.09933004571480
  C   0.99851016145719      0.36858834202995      0.01707389140774
  C   2.18568095042786      1.13026699872759      0.09032084093289
  H   3.38606692679313     -1.97467923188940      0.07724836788303
  H   -0.05294933461353     -4.00434386651080     -0.28227493824830
  H   1.61518948177108     -3.64255776701515     -0.13274104876238
  H   -1.72921338978281     -2.36055672417836     -0.22938311807137
  H   -4.39722615325837      1.24254656263884      0.53756629412667
  H   -1.51400171426108      3.82558708627933     -0.61893310791031
  H   2.24511368123394      2.20402863512213      0.10764672045578
