29
Coordinates from ORCA-job ./opt_b97-3c_parallel
  N   1.04594830900541     -3.47949717598696      1.12837522153233
  C   0.56430950597502     -2.50800894322850      0.70957488714401
  C   -0.12829117037416     -1.34701224764849      0.29504080139885
  C   -1.52020906350606     -1.47875074054053      0.14484985747370
  C   -2.27950315103732     -0.37567754167770     -0.12325242722541
  C   -3.69026600014101     -0.18353826871443     -0.28341432257174
  N   -4.61921774196382     -1.15757194306299     -0.38784547420278
  C   -3.92763487150728      1.21013812193974     -0.35877689507543
  C   -2.71686549337592      1.87417695066423     -0.23756627190162
  C   -1.67119510277590      0.92592325654753     -0.10328973103501
  C   -0.30421017949737      1.11867458022334      0.11695317510697
  N   0.08623200034207      2.38991416851140      0.34012263506427
  C   1.30358104157373      2.84866415684823      0.51129860136336
  C   2.55979396953037      2.28135298623145      0.37022202013058
  C   2.87174292254912      0.97305826670901      0.00254137612607
  N   4.17730745437862      0.68008244694203     -0.19244975460644
  C   1.92599572277094     -0.09450631689801     -0.14830839191048
  C   2.49341185239720     -1.26593641238747     -0.69617636236319
  N   3.06932338157990     -2.12726504553450     -1.22789621519957
  C   0.53419893373533     -0.09637353224618      0.12775342333726
  H   -1.94859788439579     -2.46631858406448      0.26148159574743
  H   -5.59048775442933     -0.92322668317935     -0.29174319528893
  H   -4.37689059481461     -2.10433681865577     -0.15872895675669
  H   -4.89539357600000      1.66890448711761     -0.48944550791870
  H   -2.57562171392599      2.94212886833520     -0.23835112745900
  H   1.32180415880626      3.89819698088778      0.80035165547835
  H   3.39701326500416      2.94920773045052      0.53323895601570
  H   4.46263837376186     -0.22542760435686     -0.52280288312131
  H   4.85334030933488      1.41883893377443     -0.22840516618319
