27
Coordinates from ORCA-job ./opt_b97-3c_parallel
  N   0.51707852553234     -2.90154347000474     -1.27597740862865
  C   0.77216820184565     -1.86040444766474     -0.80830543922079
  C   1.11782778119045     -0.63768196408906     -0.22804559396988
  C   2.50306288777378     -0.53484514872770      0.14869288990633
  N   3.22678259432365     -1.68130178946792      0.16952490751641
  N   3.21048368984477      0.52833704312406      0.51182107044796
  C   2.78543764108009      1.78638547358373      0.43201252489235
  C   1.58082295944345      2.35118257767501      0.08314331145894
  C   0.32016970971833      1.76987622870848     -0.15175729982085
  N   -0.65341444107355      2.65740096811043     -0.41503478246617
  C   -1.92294397168650      2.25217951257170     -0.46214729861043
  C   -2.29545019282974      0.96028697122709     -0.18690335929479
  C   -3.56816370230503      0.37096583507943      0.01736835846689
  C   -3.38859880724060     -0.94006912730875      0.39429452740758
  C   -1.99759552179623     -1.23939363980993      0.40990740328533
  N   -1.51253356770213     -2.41535516953305      0.85382183387607
  C   -1.27959779264344     -0.03756760885968      0.03481917205971
  C   0.06633643905341      0.32382254297686     -0.07154072777378
  H   4.21930426148149     -1.57517156182955      0.27645982940425
  H   2.87328473033001     -2.53988425242947     -0.21129613422151
  H   3.56649301784671      2.50108053130069      0.67622235351637
  H   1.56012274512725      3.43193939934007      0.04945732820703
  H   -2.66103548116167      3.01538924226025     -0.68595314538889
  H   -4.51415017765298      0.87931049725237     -0.08741471004090
  H   -4.16265420937310     -1.64852318762043      0.64675875550492
  H   -2.19633573295510     -3.12470859125681      1.05958951306671
  H   -0.65490700487139     -2.78262003360831      0.46767280751979
