25
Coordinates from ORCA-job ./opt_b97-3c_parallel
  N   4.02585829441385     -2.19175549289958      0.00164402833731
  C   3.28143891811039     -1.30248961532333      0.00059061466046
  C   2.39984400127393     -0.18231658437260     -0.00016745713166
  C   3.03784208677484      1.07292340011367     -0.00254254975536
  N   2.52179434648602      2.28561444590279     -0.00185951247932
  C   1.23455163732144      2.59672384684300      0.00020885247005
  C   0.03424862848224      1.86108661939853      0.00012389928725
  C   -1.13639567297454      2.63727447344647      0.00050316290019
  C   -2.39876947892782      2.08000888912482      0.00039632850551
  C   -2.54788984113082      0.70290114075829      0.00011342844625
  C   -3.69024830426056     -0.10722468499091      0.00000095413991
  C   -3.27319691304598     -1.43499872037202     -0.00014432920520
  C   -1.86228022704020     -1.49250793919786     -0.00007259954310
  C   -1.13549138086565     -2.68754727005688     -0.00033636678481
  N   -0.53147727491338     -3.68307756118783     -0.00063041340462
  C   -1.36735068259122     -0.15500075482228      0.00009314525716
  C   -0.07419811777239      0.39490243781799      0.00013461664272
  C   1.03774355386113     -0.45978780571333      0.00085547568835
  H   4.12235458680722      1.04805422436086     -0.00490557930720
  H   1.07708730332642      3.67197358114060      0.00166531867144
  H   -1.03395670265399      3.71325889924960      0.00074369228574
  H   -3.27085175906677      2.72122655351029      0.00057900006580
  H   -4.71090622384777      0.23925569474740      0.00000153881011
  H   -3.91021716651077     -2.30481645362813     -0.00031620601029
  H   0.80807283834439     -1.51455232974959      0.00199096705330
