28
Coordinates from ORCA-job ./opt_b97-3c_parallel
  N   5.19263413850172     -0.19434366448518      0.44070486528451
  C   4.03893941727238     -0.12451668682957      0.28796409329867
  C   2.64874341998732     -0.05573826340593      0.10313301873567
  C   1.91625725652594     -1.25617522275614      0.21758347367639
  N   2.60806350059785     -2.39735693034331      0.47516632310993
  C   0.53323626139707     -1.40448608614731      0.02335588191718
  C   -0.47844973854267     -0.47739495295886     -0.12102509401625
  C   -0.28921939075515      0.99568186657101      0.01284065371239
  N   0.85455225325975      1.62704236962267     -0.21076304095513
  C   2.09812700768007      1.19973517152636     -0.30001055665635
  N   2.95836971604512      2.12749427403999     -0.78395541479792
  N   -1.31110155460268      1.80216123381087      0.30576359040997
  C   -2.56897900965910      1.33945473688881      0.31778724505839
  N   -3.50045153384146      2.22070344276798      0.71979243065337
  C   -2.89117555801432      0.02650564955566     -0.07643121235986
  C   -4.06138629894274     -0.71342314071102     -0.26420666882575
  N   -3.78151783764181     -2.00021899168837     -0.59710861615186
  C   -2.44132078250642     -2.11264271120006     -0.60442620829554
  C   -1.81496999562617     -0.88629942752662     -0.29560620318170
  H   2.11036774015192     -3.22324743261409      0.74868567289034
  H   3.58095382071706     -2.35689638204966      0.72265785827973
  H   0.19690510607386     -2.43424608393274      0.03714362195632
  H   3.94969790589570      1.97030755442206     -0.79645238511303
  H   2.62019508009233      3.07060228680966     -0.84596072618586
  H   -3.21646967683729      3.17108708304270      0.87816703429268
  H   -4.47780072061320      2.00487187454439      0.67240278470254
  H   -5.08823608875649     -0.38497202278157     -0.18814823405014
  H   -1.97410474395861     -3.05117820447177     -0.86518254438865
