27
Coordinates from ORCA-job ./opt_b97-3c_parallel
  N   4.40848523049478      1.17006507119629      0.04025572113646
  C   3.27405421871136      0.42814059908854     -0.00515162566878
  N   3.51351622354623     -0.89510122657964     -0.00769581802120
  C   2.55010568522389     -1.80913090677927      0.00436920800715
  N   1.23518590454632     -1.78130711932237      0.03127571448189
  C   0.44675432160027     -0.68442452614066      0.02593522300746
  C   0.89903397881093      0.73863634163298     -0.02207093114300
  C   -0.06871481819342      1.74914684122701     -0.03110978723461
  C   -1.44029213650120      1.50803492978722      0.01912957729342
  N   -2.33835985576146      2.55581219016923      0.04828136914359
  C   -1.88361817230926      0.18114956895568      0.00529262769591
  C   -3.16178673268753     -0.40082854149246     -0.04621100807787
  N   -4.36068551480556      0.26167532754513     -0.14808578341237
  C   -3.00622156081957     -1.82256881219811      0.02975287271141
  C   -1.66516299857780     -2.11312827306684      0.08310645943248
  C   -0.92637412613447     -0.88648466817807      0.05703053236476
  N   2.16463082442697      1.17020550923277     -0.03269550209634
  H   5.28607010870098      0.70207864828438     -0.08702714134734
  H   4.34010442352901      2.15949560824206     -0.10581925618012
  H   2.94705745874489     -2.82237229840720     -0.00625032564472
  H   0.30061863477895      2.76585793199584     -0.02368594403678
  H   -1.92888917588016      3.45590406873691      0.23915633152681
  H   -3.15942558908397      2.39442345282466      0.61044839779668
  H   -4.34154330567141      1.10729387770337     -0.69733850791524
  H   -5.14900112689725     -0.31882656003221     -0.38331008555578
  H   -3.81930881040555     -2.53275787196258      0.01373496310893
  H   -1.21527933408592     -3.09067678476265      0.12027239792724
