27
Coordinates from ORCA-job ./opt_b97-3c_parallel
  N   -5.16448549348533     -0.54988323964328      0.04163319498333
  C   -4.10481752584590     -0.07020477215687      0.00805357562209
  C   -2.81962020116547      0.47993106113760     -0.02832574943064
  C   -2.46131536692152      1.84428433399023     -0.06859032243088
  N   -1.13712270793904      2.03049414231173     -0.08311153455134
  C   -0.56925186961988      0.77636861666858     -0.05400542539159
  C   -1.59625567343711     -0.22693399308446     -0.01663583101686
  C   -1.26618454114210     -1.56632551109259      0.08393692951316
  C   0.06536282510676     -1.94539555874664      0.08772959020177
  N   0.39089906568118     -3.29773181952705      0.15664572389603
  C   1.11648010244924     -0.97429517358601     -0.03981190208710
  C   2.38835285403930     -1.51724695089932     -0.35559038758143
  N   3.61380068171269     -1.05626776738516     -0.29700851841045
  C   3.93580239389775      0.18759435372391      0.08202797719720
  C   3.17393919283491      1.31548924748190      0.18892944836524
  C   1.77771660383853      1.48972657483942      0.02395352939700
  N   1.33536811460684      2.74399342789992     -0.00741812808641
  C   0.78637185926338      0.43562715043959     -0.02810981652645
  H   -3.14191402409452      2.68144925085468     -0.08966837738056
  H   -2.04381345442541     -2.31493916584442      0.17790155537130
  H   1.12263675330552     -3.53680845625550      0.80487254854286
  H   -0.40726034662471     -3.89714843563431      0.28559250858677
  H   2.34098743357458     -2.53808185838934     -0.72147818560163
  H   4.99729264755228      0.31723551433541      0.27196366011930
  H   3.72563528442788      2.22692874887672      0.39239437028975
  H   0.30983953843647      2.90571991842847     -0.05493468514815
  H   1.98567659247367      3.50673658925662      0.06207642135766
