29
Coordinates from ORCA-job ./opt_b97-3c_parallel
  N   -3.20953067017922      3.19239144704813      0.11466406066200
  C   -2.71901698631674      2.14585037123890     -0.01030809008350
  C   -2.10061160634447      0.87996808604147     -0.11388180192191
  C   -2.83600939016235     -0.13519871442432     -0.73682122896579
  N   -2.71336000225242     -1.42851861208260     -0.59889391654049
  C   -1.72384033125380     -2.08413734611167      0.00308026710254
  N   -2.08195759224914     -3.29003636126447      0.48323366172637
  C   -0.33476148125475     -1.71343266679496      0.02529915339727
  C   0.61360240621190     -2.75579411861680     -0.03933464939759
  C   1.96621643712418     -2.50961461373602     -0.05183927065952
  C   2.43259842434676     -1.20176226061215     -0.03395040869528
  C   3.73185875588270     -0.67838923260131     -0.13336906787460
  C   3.63274179667905      0.70284506207152     -0.18225652566948
  C   2.27470271095078      1.09614052747634     -0.08828670661398
  C   1.84784173438667      2.41353371017186     -0.26963921087717
  N   1.48446254817188      3.51374900916333     -0.40151770383139
  C   1.48554575251277     -0.09637947917560      0.02163358786236
  C   0.10505871275908     -0.35362778636865      0.11438514414236
  C   -0.81097898086972      0.72683309783977      0.45471131148992
  N   -0.36768135863138      1.67265062695604      1.27933328614535
  H   -3.69144158708577      0.18037557910421     -1.32430882256535
  H   -3.04356013939927     -3.56761175954705      0.39434887571971
  H   -1.48514260488116     -3.79919574474927      1.10652468979233
  H   0.26603920526675     -3.77125614460685     -0.15928322209844
  H   2.66424788524641     -3.33418305450128     -0.12119414681505
  H   4.63963485620361     -1.25603701795020     -0.20100499021015
  H   4.44766166162310      1.39851147959011     -0.30605142206845
  H   -0.84694577332953      2.55602731661123      1.35648951153306
  H   0.59118542844398      1.66035323953032      1.57964082111486
