31
Coordinates from ORCA-job ./opt_b97-3c_parallel
  N   -4.20550644690009     -3.46925606422631     -0.55693713316162
  C   -3.65207603830244     -2.46413838090309     -0.37488970370323
  C   -2.98158846457737     -1.23279441667331     -0.15289076842552
  C   -3.78987701851117     -0.10364703662614      0.07369925278788
  C   -3.40759369049258      1.17744654739461      0.32757358228313
  C   -2.12346144333032      1.79019366741694      0.33200045508521
  N   -2.13978348060555      3.06634924397235      0.75866900433057
  C   -0.86919014117265      1.20093303114241     -0.03891069170506
  C   0.26263318752605      2.01776979511961     -0.27873489319928
  N   0.14108761400226      3.40557919505602     -0.52639740081255
  N   1.52898372738739      1.59859389511588     -0.27416752654108
  C   1.76857859728876      0.31953359696852     -0.05762601722472
  C   3.00786661809781     -0.34032560577945      0.01715210552276
  C   4.29199838942702      0.19273845882200     -0.07969563721677
  N   5.39293099769843      0.56614860291654     -0.15619315157648
  C   2.71925092766986     -1.73053818945741      0.16350652717963
  N   3.65986054373183     -2.68549086346520      0.31836209550778
  C   1.32011334387567     -1.92642797705842      0.17799215551437
  C   0.70740176813428     -0.68122795391765      0.05435398834170
  C   -0.63950288081945     -0.25191546823954     -0.00530686856088
  C   -1.59581922956911     -1.26450302283786     -0.11238842357664
  H   -4.85665571949828     -0.28643954939149      0.08093867250201
  H   -4.22063474517743      1.85798007669553      0.55179404558005
  H   -1.30102109165956      3.63290386791296      0.66614313035607
  H   -3.01345785937920      3.51566890267504      0.96109306887232
  H   1.06943887808366      3.77650936351830     -0.67688340458011
  H   -0.43473892331869      3.60867598069461     -1.33289430420885
  H   3.41278739604473     -3.64872280433879      0.18589575952911
  H   4.62171742711040     -2.44744136155213      0.14789524625467
  H   0.84672777158444     -2.88451488783555      0.32260874929249
  H   -1.17617370514838     -2.25602415771885     -0.20601822264702
