32
Coordinates from ORCA-job ./opt_b97-3c_parallel
  N   2.98887510876028      2.89753531964542      0.41309388524092
  C   2.84006617784603      1.74342157938783      0.31428697529109
  C   2.63968320335035      0.37029545823190      0.17331348120762
  C   3.64081427953256     -0.60419935870098      0.40855023025541
  C   3.08557679929571     -1.87490449336052      0.38028204306678
  C   1.70352861234025     -1.73665340568178      0.15613546887344
  C   0.66973583607009     -2.66595237057455      0.14808567748096
  C   -0.64363175455510     -2.27128217452183      0.01963466573802
  N   -1.67470841497545     -3.26381239988098      0.06385478738456
  C   -0.97352814103324     -0.89718754822270     -0.17420531935055
  C   -2.36371106133839     -0.49177786363685     -0.30352966817460
  N   -3.22158907539132     -1.31104506252365     -0.93868486151033
  N   -2.91053505723501      0.58581032746643      0.23626376267581
  C   -2.35650518301478      1.77345079009060      0.41925143452985
  N   -3.10363042920277      2.65651058594395      1.14174081149934
  C   -1.19572715189093      2.24622445342192     -0.21292693648290
  C   -0.17281407382932      1.44710455149553     -0.67493424828282
  N   0.72081048298939      1.96200118765565     -1.54572249875764
  C   0.07328244241227      0.06792424061683     -0.24015537523002
  C   1.39674161602762     -0.33283028152001     -0.00503867513129
  H   4.67286628391578     -0.36392536339206      0.61185228141242
  H   3.60909692699137     -2.80339848914437      0.54474967770155
  H   0.89328536946809     -3.71595801297712      0.30354481752553
  H   -1.26107246801812     -4.18410268861946      0.10127149169331
  H   -2.25227853245873     -3.16151726798588      0.89037099739857
  H   -4.20068095107602     -1.10469594121199     -0.83348455773434
  H   -2.93856035670946     -2.27804269458058     -1.06570909157638
  H   -3.89919758963971      2.27660435900516      1.62397153547574
  H   -2.63295960061628      3.42099474289095      1.59003035430761
  H   -1.13236094228901      3.31135275487072     -0.39877605735802
  H   0.82254240543189      2.96135454850017     -1.60054514744273
  H   1.57677671804204      1.45532941551223     -1.69203844842703
