31
Coordinates from ORCA-job ./opt_b97-3c_parallel
  N   5.56317367071375      1.77285323324430      1.06498163658124
  C   4.61161782176388      1.19301756346733      0.74024931295042
  C   3.45503178643721      0.47844417312228      0.33062075165453
  C   3.53560583262828     -0.92303004657468      0.36692221501178
  N   2.70953494655421     -1.79096795152676     -0.15280109776737
  C   1.49895494736027     -1.59107703125025     -0.64657620692596
  N   1.09491058345373     -2.45865400161581     -1.57035888899713
  C   0.55798608815953     -0.54491660317630     -0.24150807054779
  C   1.01255944662805      0.82662033649046     -0.25277145764941
  C   2.32325672740918      1.22514084806722     -0.00531869075293
  C   0.02083325251497      1.87243124211488     -0.38115533273530
  N   0.42316842786723      3.15848073500946     -0.61773134813724
  C   -1.32804483230611      1.57525191024204     -0.16305536730813
  C   -2.25750678211937      2.63344356576754     -0.27720055488869
  N   -2.92651294733487      3.57378294433111     -0.40695377314051
  C   -1.72789206534948      0.25552866123054      0.12290205712061
  C   -2.98271141029013     -0.30843376277873      0.38799561496871
  C   -4.20475298824488      0.35679998727528      0.56415750124117
  N   -5.23406194086899      0.87278551136211      0.72156063675947
  C   -2.82096107710176     -1.71949145657112      0.45955367601710
  C   -1.49825317440250     -2.05802883574094      0.21960809933740
  C   -0.96794531068323     -3.34957586462826      0.29476280058604
  N   -0.49697494652246     -4.41403648485225      0.31952245919311
  C   -0.76659299688879     -0.82418197012826      0.00881319638854
  H   4.41314706280516     -1.35322977723815      0.83679520466819
  H   0.14576220647169     -2.45919830381575     -1.89759505947986
  H   1.63616317536700     -3.29634052794422     -1.71029422088688
  H   2.46696888113604      2.29279932053172      0.07892533695965
  H   1.15848828453035      3.29952795475280     -1.28797472853110
  H   -0.30744788777486      3.84910646480801     -0.68524454290745
  H   -3.60989120891103     -2.41627488917543      0.68868327441710
