32
Coordinates from ORCA-job ./opt_b97-3c_parallel
  N   -4.36092606744625     -1.63014841663216     -0.29170539885944
  C   -3.19275320018750     -0.88388633851165     -0.14217175986285
  C   -3.34912595292794      0.49597734929577     -0.06449147061434
  C   -2.36074745944163      1.44393083623679      0.21045011619740
  N   -2.81405392812164      2.75659958064067      0.35690990817996
  C   -0.98503179789392      1.25839722374132      0.28766080735128
  C   -0.16636333175512      0.12330251386440      0.09528405038968
  C   -0.66873122221544     -1.25544821671557      0.09924633737618
  C   0.26762222312196     -2.30834692672536      0.21034808849162
  C   1.63419684176324     -2.10803046826580      0.23759203532245
  C   2.13752188407414     -0.82879426697372      0.11761716026103
  C   3.45852820914640     -0.32312306467750      0.02290661319357
  N   4.61138161168450     -1.07558762216464      0.04668360122404
  C   3.38631957429993      1.05998143517654     -0.20805047478190
  C   2.03767758330274      1.43907228824671     -0.24070226319132
  N   1.59164675713916      2.72411757534496     -0.46386079817698
  C   1.22382933914583      0.28205302813627     -0.00756450099121
  C   -2.01548157980407     -1.62332877146020     -0.00806957923914
  H   -4.23338155145874     -2.53679721010466     -0.70882280840374
  H   -5.13031868011886     -1.13575395175383     -0.71086095707739
  H   -4.35819746970940      0.87619609701791     -0.17957094220245
  H   -3.73825062485594      2.84007581818161      0.74714902878844
  H   -2.16635703388129      3.37299501534912      0.81920557599620
  H   -0.44528531343236      2.14536167335061      0.59064791987230
  H   -0.11694519506813     -3.31809484975201      0.26738744845754
  H   2.29107496091725     -2.96735083146299      0.31787375981476
  H   5.44678118308486     -0.57132870368694      0.29241802143894
  H   4.54352287228287     -1.94726494891098      0.54474080919589
  H   4.22676838076762      1.71959356990097     -0.36728163393551
  H   2.25910215512936      3.30908987418780     -0.94244510302773
  H   0.67918773164622      2.77611883469390     -0.89420527889535
  H   -2.17031102008813     -2.69746771626744     -0.02197552269197
