34
Coordinates from ORCA-job ./opt_b97-3c_parallel
  N   -5.22466489426144     -1.46542856133157      0.01619706401939
  C   -4.30320471331898     -0.76418111662627     -0.08243884350844
  C   -3.16944318191389      0.07781429847755     -0.15004877427006
  C   -3.35802266077066      1.35554551034675     -0.68536265338524
  C   -2.57932637430300      2.46397275161143     -0.50752915614242
  C   -1.32128554355496      2.56865719894640      0.12111693789091
  N   -1.02857744720065      3.75952982670389      0.66171806987749
  C   -0.31315206660691      1.52137531823213      0.11560283697688
  C   1.06457535219900      1.89359250585129      0.05152578217876
  N   1.44027511970830      3.25594196409965     -0.03742804125473
  C   2.07201835127473      0.92571738533997      0.08439898259023
  C   3.41546030603713      1.37186407054829      0.03704823232753
  N   4.47541781011770      1.84408096120175     -0.00161259181615
  C   1.75209699901263     -0.43592087084508      0.07045268081950
  C   2.55771109648141     -1.59268922728665     -0.03105947444857
  C   3.95807095435892     -1.66527306710776     -0.05027136060804
  N   5.11634097587102     -1.76203195880873     -0.06223563346309
  C   1.69474955269012     -2.69420139644614     -0.16327278192894
  C   0.36473225940843     -2.26526906515000     -0.11172497852544
  C   -0.72753138225741     -3.10319205123895     -0.35711147370248
  N   -1.64732955347563     -3.79261848029489     -0.54444357120341
  C   0.37120945479193     -0.83208819549282      0.05862065118636
  C   -0.64930397677603      0.12767214745996      0.16908242909477
  C   -1.99047255738580     -0.37232991024964      0.47843125213815
  N   -2.07499851279579     -1.37700917248138      1.35021016435890
  H   -4.31087398602121      1.51689351799459     -1.17125917291835
  H   -3.02658789923271      3.40648219337307     -0.79884758650217
  H   -0.06014894729703      3.97629979050815      0.88199021931757
  H   -1.68877286669102      4.51328800219582      0.58469606882324
  H   1.12184178963082      3.68016308553629     -0.89985360831555
  H   2.44477462147242      3.36403550575395      0.00627457903637
  H   2.00888462314693     -3.71301485612502     -0.31639047044090
  H   -2.91802876578955     -1.92712967100565      1.41180898123497
  H   -1.23672126704850     -1.81267426629044      1.69255282476288
