31
Coordinates from ORCA-job ./opt_b97-3c_parallel
  N   4.56984415216831      2.11392942579195     -0.04729144455789
  C   3.62999574043922      1.42475092702145     -0.05231395195094
  C   2.52501999914041      0.57455132235846     -0.04880822937673
  C   2.58750540764998     -0.83979403437028      0.06988196868004
  N   3.72139008900206     -1.56319277159111      0.16022282211295
  C   1.27143641418305     -1.36357708435644      0.06281463477167
  C   1.02035534530738     -2.69438558150681      0.38121060913683
  N   0.85179731439708     -3.82321917422575      0.63007792937503
  C   0.35456239261190     -0.25047043982661     -0.05037725631537
  C   1.16429776022990      0.94294598400906     -0.08893444934653
  C   0.58233314183735      2.19878284674729     -0.10755174387076
  C   -0.79053914566819      2.34138723048649     -0.03670370143077
  N   -1.33177715571582      3.62409147983635      0.00912038356593
  C   -1.64119127265716      1.18514071542021     -0.03432162050435
  C   -3.02428176634879      1.43270443356028      0.00671063764903
  N   -4.05434439205285      0.69189783235615      0.36422872814869
  C   -4.04794224125058     -0.63045443337947      0.50855030880994
  C   -3.13959509673007     -1.54867841095608      0.04358066562695
  C   -1.83697784835930     -1.30214940693301     -0.42880087973491
  N   -1.27275271855896     -2.25764253904382     -1.17125720897134
  C   -1.03225266325543     -0.13736067099625     -0.11317572521178
  H   4.57570529489392     -1.08785819629154      0.39291338321087
  H   3.65745566620641     -2.52415841840782      0.44848980389009
  H   1.21646653381530      3.07710827235885     -0.10855520731794
  H   -0.63409428021191      4.34078716951988      0.12414382382373
  H   -2.07986398798913      3.76059855749221      0.66755983504146
  H   -3.31746900713271      2.44627630194749     -0.24276573877742
  H   -4.95340071108587     -1.02819451566462      0.95720408867769
  H   -3.47102280007497     -2.58064344597746      0.01061625011780
  H   -1.70060369548705     -3.16207061861527     -1.26034269649957
  H   -0.30868151850344     -2.19010195196380     -1.44688974407249
