28
Coordinates from ORCA-job ./opt_b97-3c_parallel
  N   -4.94447606491403     -1.25871913310499     -0.49116528235129
  C   -3.96825826879690     -0.64084545623919     -0.36237232439622
  C   -2.75819447239566      0.06974454653186     -0.18005881150971
  C   -2.81757893243017      1.43751148309307     -0.42763232470546
  N   -1.96831030328422      2.39297855267929     -0.13382247408647
  C   -0.71036409763288      2.25125821268399      0.24987927858287
  N   -0.18583714288329      3.35524605158289      0.81639260887071
  C   0.17384760749473      1.12434599961214      0.03752882865577
  C   1.52670423015110      1.43744619918054     -0.17079322187502
  C   2.52185537371154      0.47119184625287     -0.24062855257770
  C   3.86333099602888      0.85415246804823     -0.49095569663508
  N   4.96498226137294      1.16072143837685     -0.68876322751364
  C   2.17845512756991     -0.86904510039697     -0.03961971810341
  C   2.88382772582805     -2.07443462850239      0.00653547352860
  C   1.92378363841028     -3.05324095631830      0.25015684996964
  N   0.66819222836043     -2.54946702459720      0.35711220826917
  C   0.78473087738367     -1.20791179316326      0.17765890059003
  C   -0.24110053331378     -0.24328131064993      0.15489972580685
  C   -1.62250951017426     -0.70061312580719      0.22415406206669
  N   -1.81836943630234     -1.96774635073967      0.55546994349620
  H   -3.74825953700952      1.79119706787208     -0.85890082789615
  H   0.67093578079651      3.31938500961288      1.33530445451027
  H   -0.79008730601372      4.15019590558875      0.93262883618924
  H   1.80469197758717      2.46693311336289     -0.33364287767844
  H   3.94427604443317     -2.21367046904423     -0.11702780852553
  H   2.08776921385942     -4.11443438317697      0.36193618490638
  H   -2.74417049812078     -2.36196447275419      0.49326771332829
  H   -0.97378145251917     -2.58226849567913      0.61376206207489
