32
Coordinates from ORCA-job ./opt_b97-3c_parallel
  N   4.54304557832446     -2.46578142011007      0.00925563669742
  C   3.64342071733069     -1.72502018015592      0.03300395992647
  C   2.58985663999860     -0.81178700832687      0.05275093735342
  C   2.72922313926680      0.58932053954274     -0.07695009381378
  N   3.90098925879257      1.26000270171561     -0.18416351384027
  C   1.43995575796353      1.18407281417924     -0.04843611902560
  C   1.25712908646515      2.53016491042656     -0.35121595044990
  N   1.15012862189843      3.66774454164096     -0.59306704670652
  C   0.46581364229411      0.13063779837953      0.09537360488388
  C   1.20554745917190     -1.10012306311956      0.12602944204230
  C   0.53127262869365     -2.31127907848251      0.14404873834045
  C   -0.84207513221036     -2.32288717177331      0.09829130680032
  C   -1.62385735780718     -1.14541473170149      0.07961997990138
  C   -3.04141879630637     -1.32318067946219     -0.08820541891611
  N   -3.55719949286386     -2.57565601479486      0.11187391279330
  C   -3.93792318547037     -0.38390597687354     -0.60551243483145
  C   -3.80592177084043      0.98693003189961     -0.67016384225213
  C   -2.82286286697552      1.78977051366505     -0.13196080889155
  C   -1.61750023005740      1.38234935979089      0.43667290436295
  N   -0.99914460109166      2.24208792472072      1.26736667956261
  C   -0.94096002533232      0.12447267872447      0.16255194903042
  H   4.71165284864048      0.73572416599016     -0.46491699957367
  H   3.86795817712750      2.20799027216696     -0.51833331795309
  H   1.08413410666910     -3.24113222408140      0.12573520827809
  H   -1.32033929662593     -3.27903194664723     -0.04211801064874
  H   -4.55745448612512     -2.65953901776779      0.11279314610344
  H   -3.09520757709610     -3.18240040238147      0.76313808897716
  H   -4.89659566124477     -0.77926786493950     -0.92070807151350
  H   -4.65585790213891      1.51207933987944     -1.08927687494721
  H   -3.04192011993294      2.84930996046669     -0.07348639863757
  H   -1.25261447530608      3.21482247666273      1.25757432652377
  H   -0.06119245031159      2.04769018286634      1.56998694962375
