33
Coordinates from ORCA-job ./opt_b97-3c_parallel
  N   -4.30224200071597      1.83232924263039     -0.33274531451988
  C   -3.20099244233064      1.01306004825258     -0.14445342104354
  C   -1.96569640552849      1.65368814558646     -0.03736051734281
  C   -0.65954751349784      1.15529888181981      0.06522841668495
  C   0.38264086894799      2.08726306385847      0.14065551339497
  C   1.73374300071168      1.74241005950812      0.15147023070331
  N   2.71213903470952      2.72595249504990      0.23176284658701
  C   2.07161952740321      0.39469103758197      0.08984668793387
  C   3.31693662610580     -0.26761205624082      0.03766734494187
  N   4.55737549758979      0.34545922812373      0.16075525178927
  C   3.08706939486256     -1.63104272867312     -0.21333211525347
  C   1.70495315234490     -1.84295185720590     -0.27846121076682
  N   1.10696297516049     -3.06346967556020     -0.51224322177519
  C   1.03372568207833     -0.59569982981544     -0.04848272176940
  C   -0.32773171655498     -0.27797940562998      0.05669767664681
  C   -1.28592448621685     -1.28907112473253      0.23236746844255
  C   -2.68295711099814     -1.25602460250379      0.22807976578382
  N   -3.32163166875180     -2.46911305727349      0.43275118150371
  N   -3.54168404811842     -0.26888826442496     -0.01598213672896
  H   -5.12312007853844      1.32994500008325     -0.62545401870512
  H   -4.14706321272563      2.69356461574082     -0.82661849900792
  H   -2.02651956715046      2.73631998553842     -0.06641949976698
  H   0.11942685902349      3.13854980009092      0.15498987715223
  H   3.53993835678310      2.51890810416760     -0.30694673447185
  H   2.37314752550737      3.65264500204362      0.02840388162313
  H   4.59161649621701      1.03448805260773      0.89812173403375
  H   5.31741729832585     -0.30859481158193      0.26277300883540
  H   3.84682189416940     -2.39049749104721     -0.32684327460160
  H   0.21011943041591     -3.00633447350776     -0.97217535006121
  H   1.71024492265652     -3.73060181036200     -0.96724837778199
  H   -0.88039611803362     -2.26174189306313      0.47057359317065
  H   -4.28986360569585     -2.36846995732321      0.68691509679392
  H   -2.82401565735563     -3.15508509003616      0.97315298517464
