30
Coordinates from ORCA-job ./opt_b97-3c_parallel
  N   -4.03269687784202     -3.56867364982195      0.15057529257751
  C   -3.47962284762383     -2.54839502161036      0.11250230773739
  C   -2.82797787110806     -1.28844441886743      0.06519176849237
  C   -3.64448369625396     -0.15311471822745      0.25821322452698
  N   -3.36812710511737      1.10055243265322      0.05787267153350
  C   -2.19684706853192      1.67512997540642     -0.27231044611850
  N   -2.36575754401046      2.83385497919254     -0.92505388828637
  C   -0.86609327867642      1.22303235223358      0.03158547237010
  C   0.18182011294504      2.14947374857208      0.22029898418501
  N   -0.08268002604183      3.53103204825197      0.34327990954044
  C   1.51967982100364      1.74688871126583      0.24225916376980
  C   1.85827332798659      0.42456166905355      0.05977196718379
  C   3.06789532098046     -0.29436907465312      0.02290039332526
  C   4.37227935433950      0.18356272429666      0.12040391833593
  N   5.47452434355846      0.55532962818842      0.19483741867166
  C   2.67197514640711     -1.65544564022750     -0.14935082874292
  N   3.49435247057973     -2.71755685893814     -0.20915324314240
  N   1.33010028407629     -1.80692908153186     -0.21677391441248
  C   0.81757534525699     -0.56733237922296     -0.09703713200807
  C   -0.54798038717599     -0.19965815473524     -0.05579398566898
  C   -1.44976748687731     -1.26464784513870     -0.09489661756925
  H   -4.66239608136360     -0.34339575321512      0.58540273857018
  H   -1.57736958263486      3.44878589761724     -1.07283358687855
  H   -3.30012852345352      3.20064925444886     -0.98260183256142
  H   -0.78519338309256      3.74355501438964      1.03715217071126
  H   0.75338965020621      4.05324477362720      0.55449333663046
  H   2.29243987831195      2.48902133995077      0.40575224013462
  H   4.47819332625778     -2.57534413785513     -0.34844520138898
  H   3.10475925697131     -3.59652366227072     -0.49815213141392
  H   -0.96941996637737     -2.22913237153228     -0.19643440610443
