33
Coordinates from ORCA-job ./opt_b97-3c_parallel
  N   2.86084457445406      4.16733400975620      0.38497023378900
  C   2.45672716581003      3.08371651564529      0.26693379257177
  C   2.03792261913317      1.73739182652606      0.12951249006743
  C   0.68552408825713      1.52007330565505      0.01166931697094
  C   -0.08641672696575      0.35500828208736     -0.02102977200916
  C   0.35850561188883     -1.02782082850108      0.06208954361681
  C   -0.65579618893197     -2.00919417708968      0.28007405870412
  N   -0.34289963301711     -3.35194372965276      0.55506550942568
  N   -1.96699073202631     -1.78684778105011      0.23632115347881
  C   -2.38249299040848     -0.54849277500277      0.00849924207696
  C   -3.66782797121119     -0.00653968215751     -0.10415634571792
  C   -4.91651789723360     -0.62324043750156     -0.06216718451357
  N   -5.99129565047711     -1.07106623043959     -0.03470573129126
  C   -3.44269242490551      1.40630595754044     -0.23275971861263
  N   -4.39672785745895      2.33099022131470     -0.37098347007640
  N   -2.13390775684528      1.74550063832604     -0.21352855309086
  C   -1.47212188750640      0.58082046083831     -0.08273782183665
  C   1.70475864175887     -1.42085759828747     -0.23438025497437
  N   1.91548125461107     -2.68341350581974     -0.63913520143521
  C   2.89956347292032     -0.62227889898763     -0.15642478516344
  C   4.10458271105197     -1.33304709610629     -0.33109062294621
  N   5.11177280169848     -1.90297944750082     -0.46648459835629
  C   3.08168405890940      0.75562349249005      0.08648664568765
  N   4.33494143688433      1.21486071321970      0.23286054333493
  H   0.08220308169513      2.41845403860856     -0.01692105885230
  H   0.30836423664828     -3.47151086140278      1.31863645431601
  H   -1.20167308436569     -3.84965719016799      0.74410164312044
  H   -4.14230835608180      3.30118382378243     -0.39858538333489
  H   -5.36757039870696      2.07888626653011     -0.34589927600122
  H   2.84371979459362     -3.02739383393848     -0.81178584419986
  H   1.14535905213686     -3.34196545397718     -0.63080064062762
  H   4.51017488765628      2.20068339680165      0.32520934748882
  H   5.12926457763441      0.60365988766157      0.15740308759015
