26
Coordinates from ORCA-job ./opt_b97-3c_parallel
  N   4.08888101719869     -2.36257661586329      0.32531779400523
  C   3.22974013380921     -1.58626750231060      0.22416688576390
  C   2.25386273086384     -0.56586065298378      0.09602765471677
  C   0.93479193183219     -0.96556614865981      0.09048569885109
  C   -0.27596256332246     -0.25898748509433      0.02764356868387
  C   -0.43400493570018      1.18711770076813      0.01631099461177
  C   0.61650734196810      2.07727869911312     -0.16959722130186
  C   1.98797912604381      1.91545425461043     -0.22946984032001
  C   2.77003060434462      0.76924356851788     -0.06872285356686
  N   4.10760894177192      0.90988106449214     -0.09128412988650
  C   -1.77024625136350      1.71806073415199      0.11096781491764
  N   -1.96882814686713      3.08139938901216      0.24297664488419
  N   -2.88054800284283      0.99334121256118      0.03152061564665
  C   -2.73890029748486     -0.32787840779020     -0.06865043757798
  N   -3.71000868806270     -1.24813744314809     -0.14954725134085
  C   -3.00705061375836     -2.40840832414383     -0.13842561949030
  N   -1.66140947048726     -2.33824594081832     -0.06128792609521
  C   -1.45061452174959     -1.00523869156132     -0.02229006767178
  H   0.78274361390524     -2.03676596158957      0.15297276588407
  H   0.30863370842964      3.10325878870346     -0.32737736775712
  H   2.54807155974626      2.82494841797238     -0.41147578025780
  H   4.72137161617568      0.11699237386967     -0.01500430680175
  H   4.52616643251121      1.81097019145474     -0.22667104553158
  H   -2.94870558692774      3.29034472199331      0.35604483351602
  H   -1.40208847887096      3.55111934214050      0.92870231517435
  H   -3.51087624396078     -3.36290570059820     -0.18989111455677
