27
Coordinates from ORCA-job ./opt_b97-3c_parallel
  N   -1.88535824091054      4.40520017289141      0.18664225340261
  C   -1.69272783307485      3.26204503499363      0.13148180268830
  C   -1.46053670194821      1.86060559408135      0.06484632692623
  C   -2.59348945342562      1.04350314440566      0.09214182792450
  C   -2.70961715796244     -0.32858556320980     -0.02118757879898
  C   -4.03957519768774     -0.81685790964307     -0.07132726105806
  N   -5.10757355566627     -1.27306246693375     -0.12498364830710
  C   -1.67361049963338     -1.32897900823987     -0.13392246484049
  N   -2.11610260481329     -2.56481562249278     -0.40803064034410
  C   -0.27502109437154     -1.13121731054910      0.05551471296259
  C   0.52170575269155     -2.27170462770369      0.26905533745135
  N   1.85135532183395     -2.33586850570843      0.33877689500301
  C   2.49605787622563     -1.19209835240146      0.14388947592104
  N   3.81933439374166     -0.98992803127774      0.13919625174937
  C   3.90251680201603      0.35008650200411     -0.03574830334422
  N   5.07751190089720      0.97806098687414     -0.12235744516872
  N   2.72699322387617      1.05393385607369     -0.13879019429326
  C   1.81532244820433      0.09005908779263     -0.04027571010571
  C   0.40321093285591      0.16292680357767     -0.03147934686277
  C   -0.13753333843534      1.44053829554157     -0.03822861107956
  H   -3.53635553758859      1.56860793345975      0.16713445890587
  H   -3.10056350243594     -2.75974695184417     -0.48055366469186
  H   -1.48353269717327     -3.30392144469266     -0.64542711803127
  H   0.03856270469712     -3.21902188006202      0.47402271043005
  H   5.92458223114863      0.46324751150625      0.02895381024654
  H   5.10279381623624      1.97948937218636     -0.16461347679406
  H   0.60511364780278      2.22644212277025     -0.08994965499121
