26
Coordinates from ORCA-job ./opt_b97-3c_parallel
  N   -5.00012197633300      0.12306597919725      0.11561369008867
  C   -3.89991941722791      0.49571690257844      0.06220876854284
  C   -2.59015837655037      0.98836918700104     -0.00859286087141
  C   -2.24070676858187      2.35592952375955     -0.11780909618449
  C   -0.85770219092081      2.49428646638184     -0.15991322176896
  C   -0.28513027301841      1.21121049787513     -0.08939730630609
  C   -1.38614106177274      0.25445498039647      0.01722498568559
  C   -1.09138977954023     -1.10094201415399      0.13395105299983
  C   -2.09646083054677     -2.09449080585227      0.26657210843920
  N   -2.86492127541468     -2.95640479723822      0.37416658397115
  C   0.24138041346854     -1.52913775271757      0.10737136697356
  C   1.30710479298855     -0.63695240761511      0.01515896609844
  C   2.64262941030941     -1.16049313179947     -0.12880567911396
  N   2.80856737504109     -2.37462384849551     -0.67268904615840
  N   3.75933935384969     -0.61768661058472      0.36434048306522
  C   3.96788691595563      0.65202213470099      0.58419666902207
  N   3.33685989626222      1.71997376831834      0.08423484261707
  C   2.08158571813474      1.74071612789789     -0.27558254396147
  C   1.05080137929647      0.77839483743586     -0.07268292253009
  H   -2.95733442536967      3.16077977116938     -0.15455802850567
  H   -0.33310390673931      3.43417288951405     -0.20479556816125
  H   0.43190272277597     -2.58655825865934      0.20916443406055
  H   3.73405343389823     -2.76588566229441     -0.69712533911564
  H   2.07675480882297     -2.82562843638037     -1.18877960177170
  H   4.85171176986155      0.88241566513097      1.16948466137353
  H   1.76553247325089      2.67114484683448     -0.73648060208901
