30
Coordinates from ORCA-job ./opt_b97-3c_parallel
  N   5.56520247910146     -0.66069070324489      0.83853841722726
  C   4.53670805298468     -0.20280841158216      0.55145303433437
  C   3.28021090356942      0.35590639165628      0.19463992835641
  C   3.27374927537485      1.70362670241153     -0.16898595248409
  C   2.17314628170923      2.48299652398523     -0.47234309541351
  C   0.82757913541804      2.15478601443117     -0.40069806997500
  C   0.16147895998624      0.95714617205487     -0.12982433914574
  C   0.84267180720370     -0.36400368148384     -0.06593173954672
  C   2.19388361197974     -0.53789586595155      0.17902351103414
  C   0.05643179709986     -1.54967578843217     -0.16321300006815
  N   0.67576634068670     -2.78423893325136     -0.24295494168462
  C   -1.34697639851443     -1.47888759807487     -0.10307945914645
  C   -2.10192084730449     -2.66874579412023     -0.20750882148271
  N   -2.70157730729858     -3.65995792622171     -0.29909716225254
  C   -2.00745395982997     -0.25535698634775      0.05686479390786
  C   -3.34829989390445      0.06113587927817      0.15953593202346
  C   -3.44126196374161      1.47838567745769      0.21519472139054
  N   -4.60799790137888      2.17642349996506      0.29286769164512
  C   -2.15240210354209      2.03963311614073      0.12690617190275
  C   -1.23008409820026      0.98790793121187      0.02765427790670
  H   4.23927557738625      2.19147766927678     -0.20223184412254
  H   2.38663228289586      3.50908639937185     -0.74279578170318
  H   0.16331098106528      2.98852494935549     -0.59036071598183
  H   2.47450066064984     -1.55406407541840      0.42304254382117
  H   0.05003503052724     -3.57041438527042     -0.31604598275726
  H   1.43002995091529     -2.85425086058738     -0.90508249097763
  H   -4.17381785667382     -0.63211203234199      0.18162061445506
  H   -4.56020170860130      3.14179773750390      0.56611073264754
  H   -5.41958703000908      1.69203447869463      0.63322095798067
  H   -1.93678581945468      3.09458434473301      0.18226982991054
