29
Coordinates from ORCA-job ./opt_b97-3c_parallel
  N   -4.45321398534055     -1.32289291653359     -0.36940033444011
  C   -3.54934210610861     -0.59784331253542     -0.28024493953774
  C   -2.44965532162305      0.29339550500751     -0.16429847357025
  C   -2.77619714555602      1.60549351143524     -0.47346703990324
  N   -2.09642665996634      2.74659322371903     -0.35508769059410
  C   -0.85276436050927      2.81766060684272      0.06288950468474
  C   0.14080532687258      1.84349838790353      0.26084173389972
  C   1.30398792112590      2.37810862571193      0.84811041640032
  N   2.26569811681392      2.83945143344721      1.31828786233849
  C   0.09880679742104      0.42187735597486      0.03931635233154
  C   -1.16848361044648     -0.31309943184828      0.13013877338740
  C   -1.14048188508574     -1.66101832572193      0.40813779614036
  C   0.04636571147582     -2.42304120547981      0.42598949062815
  N   -0.02072731426654     -3.74326537161309      0.74616220851947
  C   1.23050705526566     -1.78060856433269      0.09095218160764
  C   2.51780324359664     -2.28291722166892     -0.17251476972115
  C   3.33991353970456     -1.24202966416502     -0.56874649880578
  C   2.60993170198108     -0.03602698108288     -0.53791335764328
  N   3.10084097783452      1.13124538472437     -1.00412518428456
  C   1.24781156233007     -0.34793223129007     -0.11244266245500
  H   -3.79281530182690      1.74850878541717     -0.82465281925922
  H   -0.52654756494219      3.83042895269272      0.28441891270923
  H   -2.07655715384213     -2.17985241866696      0.55708981235057
  H   0.76370272885715     -4.33406019095627      0.54076345984085
  H   -0.91489248659432     -4.19850085296493      0.70257959026230
  H   2.83124965914832     -3.31291030698199     -0.08826977143874
  H   4.37422720839522     -1.32301946511204     -0.86414510528076
  H   2.80933070312543      2.00002291181992     -0.58292921962977
  H   4.07431211296295      1.12381331476019     -1.25983445263853
