29
Coordinates from ORCA-job ./opt_b97-3c_parallel
  N   -5.67703542198150     -0.87176079968139      0.10429622287766
  C   -4.52209208283641     -0.71794394527736      0.08458863188808
  C   -3.13836699296408     -0.46095353891403      0.05144661328702
  C   -2.27191785912471     -1.55095509817456      0.09447582183382
  C   -0.89855045294955     -1.60233758742869      0.06887311240867
  C   0.05399825154931     -0.57445173162649      0.00556560952920
  C   -0.28586743594424      0.86434965053869     -0.00803256065557
  C   0.75414559247173      1.79856527649451      0.03763934776257
  C   2.10890882710668      1.46267366089553      0.06112058189965
  N   3.07340131035932      2.43629192088425      0.12967184429026
  C   2.44974335975102      0.11096148909272     -0.03187647223194
  C   3.66093869911561     -0.59636588401776     -0.09109880888831
  N   4.93719075278624     -0.09955551789452     -0.15088652107963
  N   3.45239260513524     -1.94747363548696     -0.06933378357298
  C   2.13015264138585     -2.12091756594729     -0.02467361695572
  C   1.42159256677082     -0.88597316903280     -0.01337425414695
  N   -1.50936580599102      1.42016633133044     -0.06036866261739
  C   -2.72410645935144      0.91145839109415     -0.05449354241818
  N   -3.70584708984384      1.84024979167493     -0.14473205907731
  H   -2.76577055449032     -2.51250228904603      0.15776174306537
  H   -0.48999441703398     -2.60266601970808      0.10994558184154
  H   0.45925839794271      2.83823742228162      0.06938297286090
  H   2.75416884850932      3.35042191105446      0.40375388602053
  H   3.93118776434089      2.17149971465405      0.58658691800412
  H   5.06354660501143      0.70995121711141     -0.73822863719293
  H   5.62175780281434     -0.81746401921346     -0.33420085612170
  H   1.71909207094621     -3.11911179584400     -0.01385979965928
  H   -3.42948371422637      2.79909481725254     -0.24294601364497
  H   -4.67634618605927      1.59241690433396     -0.20291348870656
