25
Coordinates from ORCA-job ./opt_b97-3c_parallel
  N   -3.07875377036167     -3.00032454543863      0.16435183812906
  C   -2.15121694091195     -2.30290819278058      0.13066436129795
  C   -0.97270131707370     -1.52044920539276      0.11195584341462
  C   0.27549319999877     -2.16674541412848      0.20659601980934
  C   1.42785078782165     -1.43984893701022      0.08217760639040
  C   2.79207601872830     -1.82106242288036      0.07599061942183
  C   3.56976155835317     -0.68982623860253     -0.09426043830314
  C   2.72182942761097      0.44403387189037     -0.18151062451221
  N   3.14862658877099      1.72095084293776     -0.34993479729031
  C   1.36897350942271      0.00033340235932     -0.05867665486856
  C   0.15641662397721      0.68314458203750      0.01004861892593
  C   0.08248965525673      2.05374810704562      0.33657184157206
  C   -1.02803409911836      2.87326304206663      0.46646561655389
  N   -2.28673804601160      2.72090300502638      0.07328809037457
  C   -2.72607490250332      1.58008544507307     -0.46601034770742
  N   -2.27469229174669      0.34988184811787     -0.43056677467554
  C   -1.07271564768764     -0.12719108320836     -0.07829275023366
  H   0.30108384199424     -3.24069067673918      0.32969046168139
  H   3.15818077786362     -2.83056061173983      0.17814158969082
  H   4.64627177803264     -0.65958191604120     -0.16272773592341
  H   2.49284240526526      2.39218317973737     -0.71431176440369
  H   4.09131028996587      1.85040403848005     -0.67634537454263
  H   1.00125402166891      2.50161955559698      0.69230719070384
  H   -0.83195943218727      3.83835262481337      0.92752384699213
  H   -3.68440227552897      1.67717227897971     -0.96837948389734
