29
Coordinates from ORCA-job ./opt_b97-3c_parallel
  N   0.04421473778413     -3.38145712048718      1.20890385669258
  C   -0.47901547665617     -2.42462267546972      0.79179897829644
  C   -1.09513062319996     -1.27495461719266      0.27219291753766
  C   -2.45880553275378     -1.45304595678823      0.00301775646136
  N   -3.42536838661823     -0.63973898552167     -0.35436993299007
  C   -3.31684474317098      0.70386381935245     -0.31469878194018
  N   -4.45604147203523      1.32378491158806     -0.73270414529961
  C   -2.26187786358972      1.51315879964153      0.11026291726352
  C   -0.90265466775486      1.23992853445188      0.30143872818612
  N   -0.16429413133006      2.33625137288227      0.60227738955941
  C   1.16061172879462      2.26357654856393      0.55041774214711
  C   1.82912400750960      1.13068166594261      0.15716808504774
  C   3.20201702381342      0.86790322516880     -0.10815248155859
  N   4.20902365857587      1.77298970300843     -0.03121499908658
  C   3.32394369244854     -0.46156748908935     -0.52852837761208
  C   2.06468278269517     -1.07297968675706     -0.50403826944546
  N   1.83073900026800     -2.31810957832480     -0.96852034613352
  C   1.08268030463355     -0.08375729570846     -0.06240764243662
  C   -0.28852886203631     -0.07938846704244      0.13188441619842
  H   -2.78884907853352     -2.48456204108936      0.10167754874267
  H   -5.27505155445012      0.74650808263871     -0.80394783564225
  H   -4.59124541388041      2.30144891341383     -0.55456649391979
  H   -2.48044512167012      2.56988451414138      0.20082674652079
  H   1.68823951035114      3.17861409125569      0.80765339307074
  H   5.15292169780918      1.43088029956095     -0.01324859753494
  H   4.05861824318399      2.60874900118643      0.50422255497224
  H   4.23887411105539     -0.94483547458954     -0.83571766951708
  H   2.64750041048552     -2.86045395853545     -1.19594105408873
  H   1.09721424856644     -2.86817623860445     -0.54432221189308
