30
Coordinates from ORCA-job ./opt_b97-3c_parallel
  N   -5.68469766780712     -0.21515195358529      0.08510354311751
  C   -4.52772533529388     -0.09142711206993      0.04543835933469
  C   -3.11970498345061     -0.00973480365187      0.00589960827678
  C   -2.55578046726116      1.25773795178547      0.02469541045893
  C   -1.23882113439445      1.67055948012308      0.00808781764276
  C   -0.03028357159207      0.96332834861069     -0.01369527335250
  C   1.17145690777041      1.73248537624462     -0.02338356530001
  C   1.11954522841234      3.14431045922336     -0.02976591610287
  N   1.10680096425168      4.30698948867036     -0.03349191890520
  C   2.44075936140878      1.14127816585116     -0.02225081624231
  C   2.55552777901384     -0.22073321763807     -0.00623115608844
  C   3.69345515542508     -1.08078254021616      0.01199583458225
  N   4.99740521502622     -0.69016300868976     -0.03840083337434
  C   3.21928834073317     -2.40790311334587      0.02044097201546
  C   1.82833854632310     -2.38941087767709      0.01415199127280
  C   1.37047731996213     -1.05051292683405     -0.00223434723997
  C   0.07524938065679     -0.49750112757694     -0.01840843490031
  C   -1.01933034433320     -1.38370709889204     -0.05963681630444
  C   -2.39676023967561     -1.24535892801282     -0.05059906101390
  N   -3.14376050893552     -2.38633981682933     -0.14477686426380
  H   -3.27606456182258      2.06507587180390      0.06064919152951
  H   -1.12851938031407      2.74615440115751      0.02135670618651
  H   3.30649080366278      1.79134471373411     -0.03701693879976
  H   5.69227328538423     -1.36382153962128      0.23170197203229
  H   5.21822363987408      0.25050118085257      0.23724724480410
  H   3.83830854998842     -3.29173198360829      0.03175671886809
  H   1.21837303193360     -3.27897075433823      0.03180587156019
  H   -0.71270251719750     -2.42092601622969     -0.10950999560599
  H   -4.12785072253323     -2.34689705733659      0.05650212533570
  H   -2.70067226951569     -3.26703898610353      0.03974846617627
