26
Coordinates from ORCA-job ./opt_b97-3c_parallel
  N   5.12342643522603      0.89965968529627      0.10579221783603
  C   4.11150971716827      0.32712671795104      0.07826724875489
  C   2.90063094880501     -0.37195616310366      0.04616989065798
  C   2.71337256643999     -1.78173420736417      0.05662100540828
  N   1.43039453204883     -2.15802765354300     -0.00106394173223
  C   0.72117780600518     -0.99712632837471     -0.04061099227492
  C   1.59892737201207      0.15030655573142     -0.02909215725340
  N   1.15363344025474      1.40066182025148     -0.14138772667594
  C   -0.15225044227002      1.59284663593347     -0.17840697987727
  N   -0.53217916133162      2.94714023181107     -0.33957228157277
  C   -1.13964777139571      0.56005693071207     -0.04917696100988
  C   -2.50584395295741      0.88070017406722      0.22609414877646
  N   -2.83566674538306      2.11249422564348      0.63637251955116
  C   -3.61509408162969     -0.00100806460580      0.06150906406101
  C   -3.65840990413877     -1.34225927837099     -0.15689396792967
  N   -2.69293878683917     -2.28550538222395     -0.12193069336797
  C   -1.42277568535256     -2.02300611526688     -0.01947642108933
  C   -0.66304042677541     -0.81043750822049     -0.05323514813720
  H   3.50350089930157     -2.51630159739199      0.10466444771246
  H   -1.07013468420817      3.09861088000751     -1.18395141821009
  H   0.31443581380710      3.49860268246559     -0.39023045301460
  H   -3.79275285059649      2.34192467447479      0.83104281269102
  H   -2.12096200429542      2.83568838107372      0.67524560053275
  H   -4.58412591057436      0.48486997688026      0.09948288310605
  H   -4.64716331942059     -1.75540211834702     -0.33063847659967
  H   -0.78940824390041     -2.89876081718677      0.07478872475686
