27
Coordinates from ORCA-job ./opt_b97-3c_parallel
  N   -5.32549265908032      1.21072721973660      0.00214161337997
  C   -4.19974598467933      0.91020606781985      0.00225421915147
  C   -2.86083725083349      0.47550838805513      0.00185529145357
  C   -1.86482394817658      1.48068102702111     -0.00478118348764
  N   -0.56599270558962      1.46008784900469     -0.00646080227175
  C   0.27234651781431      0.38681306227843     -0.00305191396572
  C   -0.08618399274411     -1.04469683596666     -0.00256170375844
  C   -1.38134758106158     -1.54805174217653      0.00112705582011
  C   -2.63714116074475     -0.92333584967112      0.00482287446173
  N   -3.71545984596726     -1.73785628771107      0.01522937046400
  N   0.86301009798061     -2.02746361755881     -0.00453806822232
  C   2.14669839591335     -1.70499822722364     -0.00248108593167
  C   2.60230891278606     -0.40073043361860      0.00338977094718
  C   3.88252292748834      0.20113982908135      0.01160235925809
  N   5.08510465873454     -0.42653860923393     -0.02965439362096
  C   3.69482953444959      1.61799787163838      0.00569100547223
  C   2.34566084179749      1.89335666019920      0.00031562508236
  C   1.62978784564321      0.65960677031501      0.00039074106323
  H   -2.27928457925068      2.48685959543085     -0.00928209837342
  H   -1.39914045797088     -2.63084852776556      0.00264410373585
  H   -3.60481319721522     -2.73325679170810     -0.00687877852052
  H   -4.64873895118670     -1.36652145574056     -0.00219012061815
  H   2.83389684182392     -2.54822089078115     -0.00914575973790
  H   5.12882379595587     -1.40121718027207      0.20785913151663
  H   5.90388145001455      0.10043530958150      0.21638807895410
  H   4.49412705103416      2.34375662320575      0.00353715288075
  H   1.88882606496456      2.86851740235990      0.00069008576721
