29
Coordinates from ORCA-job ./opt_b97-3c_parallel
  N   5.34575042621628     -0.46708957220444     -0.03917676347192
  C   4.19245201164658     -0.32120052592039     -0.01389252787567
  C   2.78084912467195     -0.22612209564380      0.01091271742163
  C   2.24605437078012      1.05077055536318     -0.00661073121711
  C   0.93147656402792      1.50505096232256      0.00244360755411
  C   0.81004858082048      2.92535508111583     -0.01295819523183
  N   0.80994126566344      4.08579103328915     -0.02868318151284
  C   -0.29753757925553      0.78632153482719      0.02108124088501
  N   -1.36683880706023      1.56860483601219      0.03406343408619
  C   -2.61206524325976      1.05667139045138      0.03009686726024
  N   -3.59201955070141      1.97331597575229      0.06081918191079
  C   -2.84567163545675     -0.32272771662565      0.00120669329218
  C   -4.00316679958995     -1.10785862941579     -0.01779945001219
  C   -3.60132708385517     -2.45731207548944     -0.04227589696728
  C   -2.21216014281402     -2.52321048853033     -0.03646802676761
  C   -1.70469309553847     -1.19963500587020     -0.00899310903046
  C   -0.39275868988799     -0.68946388516012      0.01350100940381
  C   0.67509804240517     -1.58587566319621      0.04771437053350
  C   2.06044521689459     -1.45673564544651      0.04982346416176
  N   2.79019066946037     -2.60417508683735      0.12607177457433
  H   2.98417336834520      1.84043316704757     -0.03341046311964
  H   -3.33700427251620      2.94471495018932      0.03443928521314
  H   -4.55842496943811      1.71597185374853      0.00543096785476
  H   -5.02533505220429     -0.76046183579820     -0.01438931152443
  H   -4.26782981036410     -3.30548118240166     -0.06342200019647
  H   -1.63850099825147     -3.43631723532767     -0.05675996132375
  H   0.35306480072152     -2.61954634698152      0.07739624220079
  H   2.33835010502765     -3.48509309311874     -0.03205955571579
  H   3.78310926321215     -2.58057401045116     -0.02724222348527
