29
Coordinates from ORCA-job ./opt_b97-3c_parallel
  N   3.38712625510285      3.04107856610277     -0.31189940433603
  C   2.54996286882024      2.24201806346596     -0.19656908871973
  C   1.50999616459006      1.29794937820261     -0.06228078389173
  C   0.17581170703937      1.74745026642847     -0.02010635216979
  N   -0.08030621871849      3.10764183902688     -0.03724052370719
  C   -0.89197522599378      0.81708947920796      0.08149310181616
  C   -2.15601759962298      1.32814157773065      0.39501390131599
  N   -3.37583043705069      0.81972793068552      0.37573897315522
  C   -3.66803107115510     -0.43482267263767      0.00007908721338
  N   -4.95898838957863     -0.62233531629408     -0.32882643275496
  N   -2.93282038318504     -1.56261251154666     -0.04228651724223
  C   -1.61852253970751     -1.60024710110929      0.02400039840392
  C   -0.61285391188920     -0.62039327531390      0.02807744495902
  C   0.72215412853034     -1.05805590449362      0.04139189664334
  C   1.32225683068116     -2.31989521720595      0.05339200132095
  C   2.71827290393531     -2.12956670975905      0.04072522577282
  N   3.64833845303889     -3.12074192760079      0.00772805799833
  C   3.02155549824341     -0.73932191018015      0.00946647453386
  C   1.81992053512788     -0.06648734528220      0.01284861877259
  H   0.73276473222733      3.68963425072790     -0.16115857457820
  H   -0.83841207081553      3.40427817328705     -0.62660411278350
  H   -2.15412994002810      2.36126002213192      0.72889045464387
  H   -5.60771628792688      0.13332171956245     -0.20912534442823
  H   -5.28799173320354     -1.55444318631304     -0.49948664965045
  H   -1.24289403955854     -2.61779759148173      0.04854167216601
  H   0.83635437517932     -3.28171078001079      0.07140141083158
  H   4.59361725517199     -2.88692906464862      0.25345471110312
  H   3.36397474673806     -4.04592181891061      0.27575894599394
  H   4.00697907940792     -0.30322517627189     -0.02144551688192
