30
Coordinates from ORCA-job ./opt_b97-3c_parallel
  N   5.33384317302561      0.32355435798167      0.47275999677631
  C   4.19588721594082      0.48802664908254      0.29081143008395
  C   2.80586120114164      0.63542841415935      0.08898798116686
  C   2.39631375495262      1.87844045659901     -0.39716107941789
  N   1.21836843323419      2.43749938752907     -0.47442732080197
  C   0.05063970552828      1.88532034255190     -0.09925297163692
  N   -0.89838021343376      2.78421558734973      0.14315508150036
  C   -0.32171311794282      0.48239328178628     -0.03456494989876
  C   0.60891570121641     -0.63972286757349     -0.04524854570409
  C   0.04307352811774     -1.94114452579175     -0.23678737387762
  N   0.86459500018744     -3.07537062224248     -0.41605281823660
  N   -1.24814939851380     -2.22448746343477     -0.25706564811143
  C   -2.10869898877435     -1.21858251085638     -0.07838346145453
  C   -3.49451358814539     -1.20820303275843     -0.01105201117620
  C   -3.84080873910010      0.15420273644967      0.10400276784241
  N   -5.08899279142322      0.67134254413055      0.25542347130573
  N   -2.76396415964054      0.98205660764025      0.11578770134497
  C   -1.67770804072936      0.16831104874871      0.01144162789746
  C   1.99384095608868     -0.51875179058077      0.31258824393640
  N   2.61923638589621     -1.56539933558890      0.87699032101353
  H   3.20668552343253      2.52677500842613     -0.71950896218541
  H   -0.66356866042925      3.74345368287761     -0.04937284612340
  H   -1.87301022977045      2.46287438561242      0.25323023072589
  H   0.26710763716605     -3.86305627541575     -0.62365625761379
  H   1.55104957947655     -2.96060144873865     -1.14935372849196
  H   -4.15929240814376     -2.05445539078802     -0.04550351782883
  H   -5.86368571536394      0.10435796033996     -0.03811873586092
  H   -5.18421747485895      1.65340543845852      0.06198496108790
  H   3.61391222014186     -1.53379451566869      1.02416247427307
  H   2.15801194002231     -2.46665598158341      0.88527383826607
