33
Coordinates from ORCA-job ./opt_b97-3c_parallel
  N   2.73270735249491     -3.70826588101835      0.20393237297018
  C   2.31618659690296     -2.62239617441759      0.14834909527023
  C   1.96599886288929     -1.25862983582294      0.03730628790864
  C   3.00269613036984     -0.39881826442170     -0.44299432718969
  N   4.10884490690927     -0.99229158199862     -0.94464724986987
  N   3.07363479509758      0.92574683174620     -0.46340228846748
  C   2.18137131128752      1.78273672007367      0.01856226125097
  N   2.68020633971182      3.03635714769368      0.15064028818335
  C   0.81013141229561      1.57969913666632      0.34186975724057
  C   0.17029967405831      2.66851414013100      0.93376460640235
  N   -0.34565419888399      3.60813007310582      1.40321934471357
  C   0.02831394520574      0.39216203373118      0.12938120445837
  C   0.59704400991033     -0.95102436734480      0.22775610307537
  N   -0.17070063428080     -2.01941701735994      0.49977644995440
  C   -1.49522911355443     -1.94685248094417      0.46544821497600
  N   -2.19411493408521     -3.09905381777716      0.76422959119709
  C   -2.12657653002429     -0.77437989745794      0.07313605660118
  C   -3.43273061717349     -0.44501087473647     -0.35742148286749
  N   -4.49515160783666     -1.27421184333722     -0.43756095757228
  N   -3.54113735879272      0.85573389969675     -0.70152658159496
  C   -2.32736579731471      1.40678673204299     -0.51317957292471
  N   -2.12718087075207      2.68095044700271     -0.86716513277145
  C   -1.35109157781476      0.41697796252051     -0.05141633003731
  H   4.89824592426551     -0.40404990014841     -1.13682494371973
  H   4.23846762792706     -1.98674113328789     -0.89217659013176
  H   2.15849306305374      3.76486711797173      0.60278934049200
  H   3.67306303303841      3.14114277609053      0.05383651919949
  H   -1.58826464570823     -3.82993281590740      1.10676336024379
  H   -3.00599783608870     -2.96699594620482      1.34664790836894
  H   -5.27870433534840     -0.93160739366425     -0.96833828285053
  H   -4.30688649434145     -2.25946687432770     -0.52191593245090
  H   -2.96198243952768      3.17691979696239     -1.13540677795404
  H   -1.42700572269070      3.23140706534190     -0.39097433750387
