30
Coordinates from ORCA-job ./opt_b97-3c_parallel
  N   5.96415780125443      0.16354871332115      0.77497821436768
  C   4.83372194434230     -0.00994755055189      0.57111517830445
  C   3.46843909689987     -0.24251253367071      0.32575796139821
  C   2.88690976336897     -1.52427082153597      0.11939658759692
  C   1.52578286084245     -1.33467527417682     -0.05227061721899
  C   0.45872845667051     -2.22085161391085     -0.28105635555641
  N   0.63103236330136     -3.53108533986813     -0.50707964259513
  N   -0.80655174982689     -1.79856447290314     -0.26607765420710
  C   -1.12181738855557     -0.50944652311481     -0.11641683191122
  C   -2.51968085423880     -0.34438693023033      0.07264747462518
  C   -3.23874095482640     -1.56641494026675      0.16412868641627
  N   -3.98727014181173     -2.44960165201231      0.27267774927421
  C   -3.33276404846668      0.81192068633792      0.19473587452640
  N   -4.64300191727500      0.64571522569190      0.48209788506172
  C   -2.89033991748896      2.12950925274638      0.00227213114893
  C   -1.62495842898840      2.57793484245869     -0.24719793872742
  C   -0.38669292470708      1.91748554896937     -0.29764549533514
  C   0.66584135147784      2.82352290733287     -0.59706715839139
  N   1.44827269525505      3.63737476530195     -0.86988518096273
  C   -0.08611193581429      0.54712198733318     -0.10322243400034
  C   1.23381565729395      0.07836064028383      0.02985846989533
  C   2.47102344873645      0.73253416688153      0.26203509572275
  H   3.43583536594286     -2.45219032826450      0.11628996455674
  H   -0.18227609229592     -4.11575139262122     -0.58506685546669
  H   1.53870182545853     -3.95468240927297     -0.49493058748073
  H   -5.26482539231827      1.43140751135343      0.46652642513759
  H   -5.05341313717322     -0.27119077617964      0.52545842044758
  H   -3.65775056044648      2.89233274954815      0.04221093501242
  H   -1.55502985102582      3.64450839101432     -0.41485469605283
  H   2.64459377171492      1.78153672760537      0.40432173871376
