33
Coordinates from ORCA-job ./opt_b97-3c_parallel
  N   -5.48675568582716     -0.33056168344978     -0.64195464751319
  C   -4.36398798665382     -0.08850413443187     -0.45815917302901
  C   -2.99210063996957      0.14608157493102     -0.20429762446076
  C   -2.55592058447123      1.44705624756653     -0.36120829121359
  C   -1.35623555169909      2.02876900944807      0.01931385368435
  C   -1.31856019401557      3.44231715807827      0.05642995155059
  N   -1.24741673327284      4.60059243863188      0.12337219332271
  C   -0.20017103315463      1.34424874016248      0.48177554934324
  N   0.68744759000628      2.04742155029336      1.17835193591365
  C   0.13066072625712     -0.03689552279707      0.18186130484647
  C   -0.82420240405417     -1.13588635849853      0.17971521494009
  C   -0.28571987598838     -2.45639872547761      0.06476161307126
  N   -1.11257008738828     -3.59710345786597     -0.02789189232485
  N   1.00295129286923     -2.74997913840091      0.02364591700484
  C   1.87800039605613     -1.75577095270908     -0.00019794816043
  N   3.20620111251935     -1.92327004101515     -0.08922241401984
  C   3.71080896570157     -0.67912458900798     -0.19144570643981
  N   5.03199522684646     -0.47418112042763     -0.32121332527456
  C   2.71430033912369      0.34651815414777     -0.12937228090975
  C   2.99062135371149      1.68603066944190     -0.37828750077149
  N   3.26960083883492      2.80379365854643     -0.56902488755600
  C   1.48048777699154     -0.35449625147230      0.01551673854012
  C   -2.24559419813625     -0.97732138616917      0.29591494053676
  N   -2.97947763469618     -1.95976339037756      0.82851946776439
  H   -3.30501499857178      2.13931670716894     -0.72035099840694
  H   1.55517641716896      1.62812786658157      1.46351092554312
  H   0.62814617323672      3.05168523204482      1.23876396122583
  H   -0.51017538393790     -4.39791124319900     -0.16058960762276
  H   -1.77680944270020     -3.55029088697353     -0.78994672719888
  H   5.60365512211498     -1.27004763219595     -0.54160732274490
  H   5.36838655740480      0.43091775230366     -0.59765247944603
  H   -3.98468996551615     -1.90991122260730      0.80823724257783
  H   -2.54057987709016     -2.84661785316978      1.04881900082737
