30
Coordinates from ORCA-job ./opt_b97-3c_parallel
  N   0.13479213934179      3.31919824877610      1.02415099148020
  C   0.54671203213350      2.26808910241340      0.71573504654266
  C   1.07003448460995      1.04046179814379      0.30917834539368
  C   2.49661182352425      0.98921175344681      0.22420842045787
  N   3.19005663855349      2.10081750782302      0.56991594810031
  N   3.26863266897291     -0.00311745234812     -0.19379044644262
  C   2.84478969599187     -1.25882151027156     -0.37156579503304
  N   3.71433243094755     -2.03014029840575     -1.07677371343081
  N   1.78264812226681     -1.92135450438971      0.07238144337648
  C   0.58246247076087     -1.44071795515940      0.37370203823872
  N   -0.28176797218341     -2.35044835131345      0.85990164194008
  C   -1.58700188859240     -2.10402998410371      0.80862747865072
  C   -2.10091702204358     -0.96776142254588      0.22969797441857
  C   -3.43206977988128     -0.55800042942657     -0.08993210086064
  N   -4.54324021609619     -1.31120630190266      0.07469765476680
  C   -3.38104155379529      0.72155181777158     -0.65182660239577
  C   -2.04898015853301      1.15912174996422     -0.66332449835522
  N   -1.64373069889961      2.31170303113772     -1.23343395960176
  C   -1.20825803942737      0.10222016997998     -0.11061008631146
  C   0.15257684233278     -0.04874209761877      0.13056371333681
  H   4.17148515572254      2.10281697257799      0.36320846037500
  H   2.73129170788267      2.97442933295529      0.75273589063850
  H   4.63974396194509     -1.67083435995951     -1.22393404152456
  H   3.58998515821316     -3.02415428533889     -1.01706245079813
  H   -2.22698402269763     -2.87978975018898      1.22182780928634
  H   -5.44090108159212     -0.86367741909458      0.03500901126998
  H   -4.49622781224200     -2.12086267352062      0.66576786058042
  H   -4.22294039722703      1.28449111841076     -1.02432862065431
  H   -0.83029998380620      2.77780856005667     -0.86161107212411
  H   -2.37166451978320      2.94843672753151     -1.51113391092113
