34
Coordinates from ORCA-job ./opt_b97-3c_parallel
  N   5.74763561368044      0.76446408322111      0.52418875727138
  C   4.65204402363190      0.41016667895828      0.34541754491678
  C   3.33988887728941     -0.04893690031632      0.11475556771485
  C   3.25097801281972     -1.41199609541645     -0.23930327888165
  N   4.39507922476827     -2.09853419172081     -0.44197284312249
  C   2.05790379448065     -2.15644792254434     -0.35104022108462
  C   0.77437022522987     -1.73766573085285     -0.21299474376679
  C   0.19188868825461     -0.45741874484653     -0.07169956804119
  C   0.90665009049022      0.81042624434153     -0.06465266903593
  C   0.11398166605128      1.98405268751176     -0.22958535675564
  N   0.68719749626487      3.25508774271961     -0.42336209038997
  N   -1.21214772686248      2.01358925067051     -0.20256397673430
  C   -1.86820596353739      0.87485221284394     -0.03293277538760
  C   -3.25939720994768      0.68399131442638      0.05953493229140
  C   -4.27300587258503      1.64210400632724      0.06257794047339
  N   -5.16778318424428      2.38735779114642      0.07350937641043
  C   -3.48226141335433     -0.71822745684880      0.12890212915950
  N   -4.68220318083391     -1.30706547990252      0.21106756994641
  C   -2.23194969980342     -1.39900360832330      0.07707205590768
  C   -2.14472718321310     -2.78541378425817      0.16491141439925
  N   -2.12673821578541     -3.95029374064783      0.23957177380464
  C   -1.20807167693212     -0.41550897829860     -0.00760592755500
  C   2.30222258934618      0.92796605750207      0.27127209974617
  N   2.71473444788448      2.09094256459689      0.80278389464305
  H   4.36660842323974     -3.09162016028398     -0.57542897834543
  H   5.29621855083660     -1.68027545349539     -0.28988250217616
  H   2.18998691052508     -3.21469002817338     -0.54060188171816
  H   0.05622324899910     -2.54146725614422     -0.27236064613094
  H   1.35951500941846      3.28700473338883     -1.17736906827564
  H   -0.05634404678069      3.91876516297124     -0.58965078260502
  H   -5.50866859982208     -0.75286005781363      0.34418969329249
  H   -4.75502197069852     -2.30066288604529      0.33536475183328
  H   3.68888758844267      2.25695445272235      0.98648922557175
  H   2.08151808464629      2.88278748108426      0.80929555582438
