30
Coordinates from ORCA-job ./opt_b97-3c_parallel
  N   -4.81983905699982      2.10426532744857      0.00170884324953
  C   -3.78130047266845      1.57999734303405      0.00113887991478
  C   -2.55301680412347      0.87673272624138      0.00033572235070
  C   -1.39986700158100      1.66996430398346     -0.00228961854375
  C   -0.04007673466850      1.39842601763699     -0.00381382387360
  C   0.81466620474270      2.52339641254632     -0.00668110502021
  C   2.18822901903993      2.42749973901086     -0.00805613823097
  C   2.80180243646688      1.17975616763545     -0.00571198790504
  C   4.13004870912378      0.79191553000561     -0.00873685822662
  C   4.15451938726533     -0.62705951024861     -0.01007040450213
  N   5.28170721684213     -1.38781786985568      0.03330600056463
  C   2.83399101256357     -1.12752777733729     -0.00334059338978
  C   1.96373032804358     -0.03986918841755     -0.00287428934982
  C   0.55256596485677      0.06020754670554     -0.00113926853706
  C   -0.18325939650838     -1.12090144545020     -0.00026994716299
  C   -1.54182221777070     -1.42221383149379      0.00060979735530
  C   -1.86006623777713     -2.80246612618001      0.00007824900701
  N   -2.17570459720669     -3.92205675755702     -0.00105931154001
  C   -2.66175774309336     -0.53716495870396      0.00145226564778
  N   -3.89061405413633     -1.08202304352695      0.00352069495604
  H   -1.62990511146700      2.72830420321288     -0.00342887604613
  H   0.35698051056298      3.50350587400756     -0.00787772549847
  H   2.78906038063127      3.32819174220356     -0.01003123847808
  H   4.99244211952639      1.43988214543584     -0.00528200524893
  H   6.15075645125177     -0.95714370988938     -0.22706316028856
  H   5.20726107482299     -2.35765894180395     -0.21705464663263
  H   2.58246859873132     -2.17644627260730      0.00417071937606
  H   0.42902555951398     -2.01229723091088      0.00003968783719
  H   -4.71182485390374     -0.50258266690863      0.00448028443767
  H   -4.01481957198082     -2.07920594041692      0.00460829077811
