32
Coordinates from ORCA-job ./opt_b97-3c_parallel
  N   -5.07507979497045     -0.25935235437435      0.07514763545693
  C   -3.94693929791925     -0.53887218119261      0.05271199272615
  C   -2.59758374962486     -0.92012800976039      0.02018155824220
  C   -2.13795775362436     -2.24373850868853      0.10737089947104
  C   -0.73884559408085     -2.26696079816303      0.05726381337942
  C   0.02589523260228     -3.41379121606092      0.28718935522368
  N   0.68800764742608     -4.35713858599328      0.46181622766643
  C   -0.28394851677975     -0.90291014316372     -0.07100833935200
  C   -1.46150264726309     -0.07886285281780     -0.05521075972194
  C   -1.33270423919335      1.31668710387248     -0.03081886638604
  C   -2.45740563434359      2.17331836334918      0.02478430285812
  N   -3.29874210865433      2.97221168700955      0.07664294626323
  C   -0.06540679906620      1.91144729167485      0.00818342236438
  N   0.03985495517392      3.31041671865770      0.06351580738279
  C   1.10199804995869      1.10622636322716     -0.06586880290062
  C   2.41200669473377      1.74220689991107     -0.11140098308402
  N   2.57189437971077      2.86389317350522     -0.82747757962938
  N   3.47435721713672      1.34481253552938      0.57207480686535
  C   3.82432007428831      0.10573222396213      0.85897460158063
  C   3.34981789357834     -1.05712320455606      0.28781136827439
  C   2.14328835005863     -1.17059329693132     -0.40739216679474
  N   1.97720515285473     -2.17577909779289     -1.26973247966438
  C   0.98608004137334     -0.31199292944382     -0.15131364230377
  H   -2.76540903480574     -3.11059955245672      0.23019550638049
  H   0.63997858012514      3.63577334558050      0.80809973706883
  H   -0.86193229536295      3.75850429897307      0.14765540508652
  H   1.75593591262205      3.36241579563964     -1.15383990513748
  H   3.43337522052308      3.37018341500478     -0.70841046085536
  H   4.67218199113342      0.02596284094457      1.53119781126799
  H   3.97236286828581     -1.94053267574751      0.35832077365150
  H   1.06155569044723     -2.37843640218012     -1.63203934532569
  H   2.62617716315647     -2.94462382831855     -1.28062110465428
