24
Coordinates from ORCA-job ./opt_b97-3c_parallel
  N   3.51748321886159     -1.41443774548071      0.92722608323503
  C   2.67310131172558     -0.63694894082336      0.21718396906100
  N   3.25994545459198      0.41467179665938     -0.39400727766973
  C   2.56014620145199      1.45853843315297     -0.77995967775718
  N   1.33479705499524      1.88272658557182     -0.49996935128065
  C   0.30791111393508      1.15057838991754     -0.07931941339898
  N   -0.79487319104239      1.81170433443567      0.24945982490450
  C   -1.96722357637080      1.15827887855101      0.30208942955902
  N   -3.00758281731293      1.88728889687358      0.74126802066418
  C   -2.10415780145249     -0.18869205483635     -0.09572883673387
  C   -3.19069801224880     -1.05902104154447     -0.20292251201328
  C   -2.68695539684427     -2.35411694865719     -0.46634335897938
  C   -1.29980598999296     -2.30714808172717     -0.49299279745397
  C   -0.90644263798115     -0.96226599061940     -0.28116784913821
  C   0.33672194972861     -0.36137047122272     -0.10509804364468
  N   1.42349556158600     -1.08408236045129      0.13148556525486
  H   3.20015001953763     -2.31897347754313      1.22350498605631
  H   4.50258102830838     -1.24217791819425      0.84507059496553
  H   3.12428301783569      2.15892339660000     -1.39080334436039
  H   -2.86726886681133      2.87194392500310      0.88191466374680
  H   -3.94254808776252      1.52806264454747      0.71568134228535
  H   -4.23646965418622     -0.81107207595905     -0.09318067853755
  H   -3.29123311334080     -3.23506374516808     -0.61858255723350
  H   -0.62858680780982     -3.13274301688440     -0.66347661733176
