29
Coordinates from ORCA-job ./opt_b97-3c_parallel
  N   3.45009028148155     -2.19711835246946      0.24046790949902
  C   2.83480045904007     -0.96155811865016      0.10209892413746
  C   3.68619579668271      0.12278127958882     -0.16958043266457
  C   3.31643550680463      1.44943533738433     -0.25930201889609
  C   2.07866147254138      2.05459220089421     -0.15234370247348
  C   0.78278906998775      1.51434488870543     -0.01395768547102
  C   -0.28390431445346      2.43363891229088      0.07440589918329
  C   -1.61410562109778      2.05821888803102      0.14174874068815
  C   -1.93056068926249      0.71833691703201      0.08268605460404
  C   -3.13819411899756     -0.02109775391594      0.03521150890075
  N   -4.41554513235351      0.45880258929877      0.06178888963438
  N   -2.90991233969567     -1.33981809622087     -0.14064628190080
  C   -1.56924276320212     -1.49473776944792     -0.18724554370084
  N   -1.04724541849421     -2.74573012165861     -0.37064007424175
  C   -0.87498596169907     -0.26002505555900     -0.02791586921863
  C   0.48636760027780      0.08417452733413      0.02549044195107
  C   1.44787282618127     -0.94022041967786      0.19427168478273
  H   2.91285268458570     -2.90470277182693      0.71233097987253
  H   4.40656642642997     -2.17448388305529      0.55042942580827
  H   4.73964789693628     -0.10273825105890     -0.28249034187055
  H   4.13836214896025      2.13834814847802     -0.42291679735482
  H   2.09973813486363      3.13586092246182     -0.22061151885878
  H   -0.03476771792333      3.48623648907565      0.08838807089551
  H   -2.38058285047927      2.82161007739628      0.20970471339811
  H   -4.56358984696301      1.32627299334784      0.54682694337812
  H   -5.11721372130978     -0.23870763580577      0.24640547429007
  H   -1.72602770940901     -3.40030839854711     -0.72885492992037
  H   -0.16561557486045     -2.77903181033280     -0.85958845431929
  H   1.02120368792772     -1.89143398339264      0.48455153286747
