29
Coordinates from ORCA-job ./opt_b97-3c_parallel
  N   -5.63940016858136     -1.80248888892694     -0.17065710787812
  C   -4.57336368233777     -1.33265487934949     -0.14297175370735
  C   -3.31708370993061     -0.70051715807383     -0.09791367894786
  C   -2.18493435893726     -1.51602289359124     -0.14875938692609
  N   -0.89995156035125     -1.25851593309613     -0.09844461308114
  C   -0.31618962700079     -0.02269980207173     -0.05449048781128
  C   -0.95951926431441      1.30504230040199     -0.08685851393667
  N   -0.21599090786876      2.42633632763101     -0.20881494434537
  C   1.11354839977904      2.38455100135204     -0.20083154019079
  C   1.81506375008716      1.21179821217723     -0.04125446327314
  C   3.20253598764894      0.86913156994320     -0.00299760964100
  N   4.23873116826985      1.71064218415070     -0.04180857094783
  C   3.31244295138543     -0.54601341225018      0.06513542052139
  C   4.50654033759204     -1.26359611396899      0.11309399763316
  N   5.51332854051284     -1.84868559439854      0.15218747215937
  C   2.00145938187058     -1.08945803513262      0.06159206081223
  N   1.63895218087677     -2.36063166701887      0.09174738385508
  C   1.06493136363300      0.00247952216413      0.01689741630474
  N   -2.26667916306373      1.55930989058366      0.04076026625591
  C   -3.29177447848470      0.72888874072810      0.07422509445885
  N   -4.47331289546268      1.33664595734295      0.28583146098351
  H   -2.40845416364595     -2.57615033892081     -0.23340802222692
  H   1.61052677255043      3.34246288971390     -0.32787754781627
  H   5.18123607698796      1.36739438473367      0.01406626296287
  H   4.10481114236860      2.70372802244646     -0.03191628975627
  H   2.31198329162287     -3.10750054678835      0.07850740375875
  H   0.63383936182057     -2.52472744210047      0.02677756495854
  H   -5.34031841837268      0.83066714542083      0.31749975166987
  H   -4.47349214035410      2.33815943129828      0.35745886475182
