30
Coordinates from ORCA-job ./opt_b97-3c_parallel
  N   5.83735753617085     -0.05652200422998      0.33770284005102
  C   4.72250015521291      0.23141834772830      0.17781099697029
  C   3.34678900917622      0.52703395547011      0.00606142079293
  C   3.05888950823519      1.84238200124697     -0.34072584631458
  C   1.83484367220231      2.47364447664921     -0.42975009302562
  C   0.58267089173388      1.93233774752069     -0.22616906890139
  C   0.16454356025454      0.61169316458644     -0.03269514647211
  C   1.02299119795560     -0.57450226544925     -0.00355114452424
  C   0.42844798641579     -1.83018568289273     -0.11550480030080
  C   -0.95515156326384     -2.03631154275003     -0.16339195582589
  C   -1.45937603554318     -3.34832539225923     -0.32831795664106
  N   -1.83076274262328     -4.43956372137769     -0.46077050134773
  C   -1.80663784192886     -0.94312408174549     -0.02948727371057
  N   -3.15060685983463     -0.94186728950089     -0.00928652384441
  C   -3.49759341092351      0.35308593871821      0.08253856977189
  N   -4.77757979913909      0.73569603644339      0.17264006144090
  C   -2.35987932167054      1.23403526823856      0.10619899232156
  C   -2.46186655087026      2.61870578190589      0.20339112396574
  N   -2.60682215905527      3.77354988869960      0.27911267417744
  C   -1.23483751209523      0.38876489697202      0.04063356553379
  C   2.44272441793913     -0.55511655072637      0.23823131565558
  N   3.00654241734597     -1.69565256307685      0.67656976376474
  H   3.92814403188513      2.46628782620032     -0.50358036445416
  H   1.86299718401244      3.53129032026099     -0.65351013683841
  H   -0.21867092848778      2.65452641155510     -0.27873646937402
  H   1.04256187074820     -2.70805117664007     -0.23617178934679
  H   -5.49505470254750      0.04357962729986      0.05565964160412
  H   -5.03013103597484      1.70503578673603      0.11561619459116
  H   2.44351515698022     -2.42772901100730      1.06482572452194
  H   3.99751085488895     -1.74693175267551      0.84240545295814
