27
Coordinates from ORCA-job ./opt_b97-3c_parallel
  N   5.32200608909445      0.01605846096014     -0.28084681162237
  C   4.16543426969213      0.11594947715896     -0.20310503621392
  C   2.75874311840325      0.16033104516751     -0.09602182976085
  C   2.14361732672738      1.39769903653189     -0.14072019519857
  C   0.80268961600329      1.73613443246391     -0.04844786482968
  C   -0.33568258626387      0.94052273381511      0.04020896856049
  C   -1.60453069219738      1.58814414491786      0.09540436450648
  C   -1.67354932447652      2.99879242084077      0.16198818302692
  N   -1.73939655099506      4.15775651330479      0.21830714858004
  C   -2.80856715694315      0.87700516640072      0.05858748965087
  C   -2.79102302979674     -0.49515014771372     -0.02918240400879
  C   -3.82510338947305     -1.45501288737747     -0.07437453779185
  C   -3.23266492392579     -2.72315184773443     -0.12294022849034
  C   -1.84198822560664     -2.58197491505598     -0.10243519422058
  C   -1.53416282934152     -1.20308917650825     -0.04964161422506
  C   -0.30035835675563     -0.54330651523973      0.02135320872692
  N   0.77972878508973     -1.32552853641516      0.09916457254068
  C   2.07272730690856     -1.09293002499069      0.10319151547620
  N   2.83960279510967     -2.18757597405401      0.30120956766044
  H   2.81717641579478      2.23637326266931     -0.25948537774881
  H   0.61784466120734      2.80153825624395     -0.07560495301652
  H   -3.74066778645765      1.42479959220831      0.09390482489487
  H   -4.88273531231479     -1.24192618425165     -0.06694769607633
  H   -3.76428612390152     -3.66071456372103     -0.16719767412013
  H   -1.11857248955742     -3.37989651568824     -0.12605262209636
  H   2.37717607828548     -3.07508065510354      0.37180480097738
  H   3.84243190879070     -2.15473662192928      0.27895637501886
