31
Coordinates from ORCA-job ./opt_b97-3c_parallel
  N   4.42675113710271      2.66885187803772     -0.15900686785768
  C   3.69900370076122      1.76467796547278     -0.08810948092095
  C   2.90447517276627      0.59641111029659     -0.00689531021851
  C   1.53536330582894      0.75353704598284     -0.04261912230033
  C   0.48276728948272     -0.17531120291948     -0.03287945244105
  C   0.67518394491787     -1.62411328999498      0.00627993805769
  C   1.88162935422472     -2.25502573294992      0.28356001986976
  N   3.15075468305864     -1.86916325084209      0.32053260639873
  C   3.63025224161829     -0.65216311952693      0.09901238142939
  N   4.96392254344470     -0.59587176203764      0.00192213868868
  C   -0.48844335539561     -2.45710411113392     -0.11931042881421
  N   -0.37974160008183     -3.81809125618906     -0.23871397998841
  N   -1.73610285276209     -1.99861775413888     -0.09584303283614
  C   -1.91964946798768     -0.68782046674501     -0.01724124001898
  C   -3.14259764015711     -0.00388281835767      0.02807506639789
  C   -4.43590878530083     -0.52712142237149      0.04331845996932
  N   -5.54243446712358     -0.88837497021894      0.05678187254236
  C   -2.84572413535173      1.39119418341470      0.02635761493233
  N   -3.75323784648697      2.36756928934475      0.05782506910737
  C   -1.43457401081704      1.57602118384572     -0.01408553308643
  C   -0.85044696499959      2.83991735570903     -0.00895100244480
  N   -0.41068770849084      3.92042992754941     -0.00421765438452
  C   -0.83248491687729      0.29326370727562     -0.03265348079532
  H   1.22479900994327      1.78701305194681     -0.09997107797451
  H   1.78906332657785     -3.30675265217403      0.53406495578363
  H   5.47867424437094     -1.44917000871538      0.13110212511113
  H   5.45942254158337      0.26868751971284     -0.13151690689323
  H   -1.26786103804582     -4.26686709106530     -0.39365501989235
  H   0.36896144497002     -4.19180546374029     -0.79299994850653
  H   -4.73398319801915      2.15442241325871      0.09474565448174
  H   -3.47408352915607      3.33237929697548      0.05398952730362
