28
Coordinates from ORCA-job ./opt_b97-3c_parallel
  N   -5.17145887231838     -1.64435808761906     -0.53811850435331
  C   -4.26328680416051     -0.94495788212386     -0.35183739177605
  C   -3.16522783239194     -0.07107718420022     -0.12927725315691
  C   -3.48478943928330      1.27929684487289      0.13649075218362
  C   -2.62516107380676      2.31796305661402      0.36402807028959
  C   -1.22233384983518      2.34297365415534      0.27820378787574
  C   -0.29507147263433      1.35183865317066      0.04139247197717
  C   1.07840012705542      1.76077700913787     -0.09520915831705
  N   1.38472192938721      3.09640933320296     -0.22667051383022
  C   2.11913674083306      0.82091471284067     -0.02438755433024
  C   3.45460839029092      1.25834211565802     -0.15586785323557
  N   4.52376664478240      1.69666589021809     -0.27543515833134
  C   1.81880825143407     -0.54481641888779      0.11764596847924
  N   2.63422071025736     -1.59079626181557      0.16628754038542
  C   1.74802636026155     -2.64417477119942      0.18633401550416
  N   2.19641385969597     -3.90368418117609      0.26973008997617
  N   0.43465642504068     -2.34355318906172      0.14888907979821
  C   0.44092174688694     -0.99280405735912      0.10979551143784
  C   -0.62454657730151     -0.09565520088963      0.02165696709992
  C   -1.90003128055768     -0.64610880240739     -0.11507257825317
  H   -4.54211406748385      1.50667158521102      0.18567941353002
  H   -3.08544963974142      3.26764988798103      0.60238716349003
  H   -0.80313145870834      3.32546473050488      0.45226020003103
  H   0.81404249454921      3.62760107688109     -0.86070259733580
  H   2.36460195000001      3.30391834031764     -0.33747320993217
  H   1.55184349043117     -4.65966468345359      0.13283288083284
  H   3.17762128789793     -4.07312334075330      0.15048831565284
  H   -1.88154463368115     -1.72433651522307     -0.21696231459214
