28
Coordinates from ORCA-job ./opt_b97-3c_parallel
  N   1.67993674274468      2.95403413312007      1.01524353979093
  C   1.48229957718869      1.88261653005855      0.60512452296702
  C   1.44449300165026      0.54026354297456      0.15936891888956
  C   2.74607999916372     -0.03491991473317      0.05093666419008
  N   3.82502280227199      0.76795941111058      0.26186178661759
  C   3.01545932191854     -1.35471335318307     -0.32276660743927
  C   2.12422595683933     -2.39498028210535     -0.48327819773954
  N   0.82715774296594     -2.49874284037132     -0.27193368304178
  C   -0.06075444869054     -1.52394792398449     -0.03233306205943
  C   -1.34874968844531     -1.98154066231012      0.23708282146533
  C   -2.46940664861194     -1.15353414726868      0.28407462632592
  N   -3.69045428211134     -1.66953320399827      0.57870530019184
  C   -2.29854817314247      0.21476700019943      0.00060398989771
  C   -3.21056476435377      1.25507694011388     -0.15066571799284
  C   -2.48942164271631      2.42606367024516     -0.48865205003310
  C   -1.14021921881954      2.13311681987438     -0.52191844186075
  C   -0.97085030946916      0.74561869010911     -0.21518882929071
  C   0.17342284496368     -0.04590619291164     -0.08592300918662
  H   3.70147693084677      1.68768546614178      0.64889955275449
  H   4.71826018701565      0.33863924117629      0.41282143746070
  H   4.05818280590390     -1.60309075544044     -0.48221941955440
  H   2.57776922399988     -3.33328139614655     -0.79582062900007
  H   -1.46210680745206     -3.05355543055553      0.31746936775497
  H   -3.81044769049412     -2.66604406434960      0.55097479794535
  H   -4.50854237357671     -1.13168826871980      0.35941879084552
  H   -4.28343665422456      1.20055978444638     -0.03631414665015
  H   -2.92743234718991      3.38963663948549     -0.69700095488062
  H   -0.36285091777560      2.82719110672237     -0.78661476746780
