26
Coordinates from ORCA-job ./opt_b97-3c_parallel
  N   4.54527267189728      1.91554971872204      0.05008003549432
  C   3.53251525453468      1.34275110475752      0.04083761911616
  C   2.37364981684020      0.56425831471496      0.03377876214543
  C   2.37695362948874     -0.86269472385889      0.04969080495428
  N   3.47071005433840     -1.62938350546796      0.07754786069087
  C   1.03502659937905     -1.32981184024812      0.02867766442557
  C   0.72046381033751     -2.68696523877121      0.08452872105992
  N   0.52525526405163     -3.83517250119240      0.13389942317944
  C   0.17862029665418     -0.19738581487047     -0.00332320820596
  C   1.03457713550857      0.98214977161856      0.01227171716295
  N   0.58035113705410      2.23731795091745     -0.01439336382804
  C   -0.72800138664843      2.39813710576995     -0.04844691728107
  C   -1.68696603706446      1.35572864411107     -0.04646512423916
  C   -3.02067926819164      1.74382212723627     -0.04411943939570
  C   -4.17779592240757      0.97838221665853      0.06249604960708
  C   -4.26104763958513     -0.39819768089867      0.14199146430890
  N   -3.33521623231293     -1.32575099367943     -0.11374602288878
  C   -2.04587492209657     -1.15098955879397     -0.26316282839607
  C   -1.20368371433589     -0.02623693685956     -0.05413614279768
  H   4.38398529484386     -1.21640971689792      0.13497873234578
  H   3.39749615508102     -2.62991653906020      0.11859380749262
  H   -1.08494915751679      3.42209869513894     -0.05706792428152
  H   -3.17830845595187      2.81643782397107     -0.07120574574248
  H   -5.11206738927648      1.51897620227582      0.14730319361237
  H   -5.23183558331939     -0.81519422502417      0.39169538006433
  H   -1.53075446720188     -2.05099220646911     -0.58167746030314
