28
Coordinates from ORCA-job ./opt_b97-3c_parallel
  N   1.65258361288927      3.96718119996246     -0.00592981809956
  C   1.03155933618826      2.98344738253040     -0.00572005302073
  C   0.27920637343798      1.78925141634289     -0.00590520739240
  C   -1.11854912563450      1.90630002236052     -0.00483501835841
  C   -1.87261333110121      0.76335645663691     -0.00479004228066
  C   -3.27133530437617      0.45221562818207     -0.00489717957638
  N   -4.29430525691980      1.32010463141391      0.02268784285350
  N   -3.50514455546232     -0.87773751108762      0.00284903738191
  C   -2.28977161799587     -1.46699617112477      0.00736649502917
  N   -2.10419314581971     -2.77717422053139      0.01347123397165
  C   -1.21765857984979     -0.50454656489247      0.00000534795979
  C   0.15181274246970     -0.68386702110839      0.00088822674302
  N   0.58628627387077     -1.98465312232137      0.01169679299643
  C   1.82637761831882     -2.42678286442579      0.01253155666838
  N   3.03494351158172     -1.88502632719784     -0.00046686225882
  C   3.25504864407447     -0.55675229791451     -0.01779772441610
  N   4.57403200601157     -0.25577365902619     -0.05242149388220
  C   2.36014490210485      0.52324733288485     -0.01662787172743
  C   0.96727723634093      0.52536273947577     -0.00633656038170
  H   -1.55419278330851      2.89669022543965     -0.00050701288007
  H   -5.22074637677819      0.95948742267252     -0.12155683851241
  H   -4.14019256706151      2.29149473379845     -0.17102460347528
  H   -1.13233996735510     -3.08047228670876      0.01855329605604
  H   -2.88473562464530     -3.40942055917624      0.02589435229710
  H   1.87259894847493     -3.51457570693408      0.02781684877428
  H   4.90620712090377      0.68607897125294      0.03247388864255
  H   5.22535049414019     -1.01488196235738      0.02958443081992
  H   2.82723534530078      1.49922472265340     -0.03121135523160
