27
Coordinates from ORCA-job ./opt_b97-3c_parallel
  N   3.60954035084474     -2.98941144775088      0.00013908248841
  C   2.98719359790315     -2.00586738796787     -0.00094574263995
  C   2.30376352632023     -0.76800805544778     -0.00192380441755
  C   0.90918467416470     -0.83104592684027      0.00135885566246
  C   -0.08904180038901      0.13211460486194      0.00274401088641
  C   0.12747266818627      1.57506102209594      0.00251210356784
  C   1.37828909364537      2.20041592597813     -0.00240782061023
  C   2.66559839138590      1.72205448083193     -0.00672655096200
  C   3.13115770783505      0.39542431004740     -0.00667549873339
  N   4.46600596835709      0.21301908960310     -0.01097120764922
  C   -0.99196764497388      2.42326598969295      0.00650959872783
  N   -2.27099272890954      2.05355316178137      0.00836002539594
  C   -2.50854514781066      0.74837753193251      0.00729290534620
  N   -3.72860076336992      0.19282415851187      0.01305686850551
  C   -3.49646638978244     -1.14056183159251      0.01685485258297
  N   -4.53642102595954     -2.00060795211091     -0.01439375043951
  C   -2.11565182935915     -1.48743856529504      0.01215762592457
  C   -1.44282734631872     -0.28083227661151      0.00748435442994
  H   0.53743709514841     -1.84764377660184      0.00311511084719
  H   1.31954290275872      3.28395296878912     -0.00277659647955
  H   3.44261761326433      2.47726649362645     -0.01029020057519
  H   5.08984456485106      0.99740813480517     -0.01547820367179
  H   4.87019799296533     -0.70741749759753     -0.01198330274824
  H   -0.81542410758165      3.49432295203378      0.00701040933779
  H   -5.44676768041773     -1.61537178556995      0.16733010557573
  H   -4.39281397602451     -2.96251958399546      0.23065865615929
  H   -1.71670625223360     -2.48969014331007      0.00613763738853
