29
Coordinates from ORCA-job ./opt_b97-3c_parallel
  N   5.77904156726240     -0.85879871560110      0.05855617439184
  C   4.69908042242438     -0.43252556434541     -0.01176422977241
  C   3.36193796676141      0.02188661103940     -0.06595513840610
  C   3.18178221292118      1.36010209441564     -0.42876978201390
  N   2.15046801846000      2.15992265366694     -0.35191430406735
  C   0.90251168928769      1.84383863776484      0.02864881815718
  N   0.15428108748694      2.89811327362881      0.33407753744333
  C   0.25854272023351      0.54116312259237      0.03809709199870
  C   0.94193093117309     -0.72986091117556      0.02055198417228
  C   0.16284516586958     -1.89625261742252     -0.15290187668087
  N   -1.15679378486852     -1.95880663873792     -0.23922022701002
  C   -1.80382867511365     -0.80355485743850     -0.10008482819610
  C   -3.18052402459621     -0.52264988869120     -0.08171149646346
  C   -4.27513013278520     -1.37867658949900     -0.19778329171877
  N   -5.23681010388102     -2.02785770038377     -0.29224225001193
  C   -3.26287643692424      0.89284253419401      0.06948686439888
  N   -4.39852574362547      1.60407637468984      0.18287054209572
  N   -2.04865584101198      1.48146713857500      0.14189091440441
  C   -1.13673121389055      0.47629860072875      0.04043116822415
  C   2.34590489244475     -0.92512301448278      0.23718012572853
  N   2.75702286951541     -2.12359414810662      0.68318093347030
  H   4.08379822916722      1.85333178229707     -0.77980753472107
  H   0.56625843323191      3.80318318706318      0.17847154275743
  H   -0.86227402541661      2.77434312413607      0.42718062549780
  H   0.66568901683212     -2.84207620746883     -0.30968725159321
  H   -5.27120089263786      1.16334610134713     -0.04758141470579
  H   -4.34663655848939      2.60117299213616      0.07981060429199
  H   3.73761435246338     -2.33055982223905      0.77030105404972
  H   2.10769467130561     -2.79536368138287      1.04341408137872
