28
Coordinates from ORCA-job ./opt_b97-3c_parallel
  N   -3.82448762446602      3.05426821083056     -0.52090315079448
  C   -2.97257684574801      2.28337887800619     -0.36273825463309
  C   -1.88483972483095      1.39642983575854     -0.16225015885732
  C   -0.59419163360427      1.91737715147422     -0.04478153390093
  C   0.53657893993285      1.11352512141694      0.11653018903112
  C   1.80095698919629      1.78381218614598      0.36014890405099
  N   1.73256679652528      3.07974585700245      0.76458489015587
  C   3.06904265656828      1.28024964481678      0.12198004882656
  C   3.42320179452140     -0.01834941531786     -0.25529526719944
  N   4.65282518010786     -0.23844413468641     -0.76541585449840
  N   2.73244217635760     -1.15090302176321     -0.03595339031925
  C   1.46023095145004     -1.25282432815538      0.21289280283024
  C   0.39070844511636     -0.31687913668811      0.13213015162446
  C   -0.91889710946460     -0.84589519258512      0.07390040999280
  C   -1.48043224800905     -2.14653283467401      0.08094376860703
  C   -0.85148412641128     -3.39030905619312      0.18865630362116
  N   -0.33541530454109     -4.43064539247807      0.27835764994681
  C   -2.87949745040143     -1.95151671851272     -0.04946959377850
  N   -3.23384743350508     -0.66607008737476     -0.14848917521689
  C   -2.07199315498282      0.02035475830455     -0.07832634881189
  H   -0.48682806084716      2.98505386808817     -0.14948926803727
  H   2.58040618635752      3.54549437299362      1.03222842935185
  H   0.90385162951212      3.40277710885230      1.22826258655249
  H   3.89008030436449      1.98034250131192      0.23214520792023
  H   5.21968581034559      0.50690940660349     -1.12244699244204
  H   4.91538714057409     -1.18729316853023     -0.96540477824843
  H   1.16093128007357     -2.26552276341765      0.45170163767756
  H   -3.61761314339142     -2.73949303712947     -0.07287931095106
