29
Coordinates from ORCA-job ./opt_b97-3c_parallel
  N   4.20949016972948      3.05063548973160     -0.19075999527236
  C   3.44713289217662      2.17417375219330     -0.16300431538447
  C   2.59119659799512      1.04770544144129     -0.09981832550126
  C   1.24347936967012      1.24034514253520     -0.20004871423033
  C   0.16543348668521      0.33106926533455     -0.07833004581321
  C   0.22919990734226     -1.10403598219573     -0.00917616528063
  C   1.45635512255597     -1.79751300011218     -0.31543544264385
  N   1.38882942000950     -2.99966755545286     -0.90260947491603
  N   2.70854746875402     -1.41805257052222     -0.05198073183546
  C   3.22399084743752     -0.23419886386142      0.15638140686891
  N   4.48853389886431     -0.21189168967601      0.60710129642112
  C   -0.99225829618041     -1.81362508184944      0.18942549769455
  N   -1.00859035189259     -3.21369096641944      0.32879845927914
  N   -2.19569107031034     -1.25433556797453      0.22160263670965
  C   -2.27228246133186      0.06529020607521      0.07516223596732
  C   -3.37078371544825      0.94367321808127      0.04385587738136
  C   -4.73111468791764      0.62970608316145      0.13375379214254
  N   -5.86400459774843      0.37779397745925      0.20775843937216
  C   -2.78899404106421      2.23185371734452     -0.08609624865374
  N   -1.44668537552166      2.22151853779016     -0.13950753363342
  C   -1.10490493369892      0.91408190257991     -0.05021417376851
  H   0.91427300264757      2.26290559389233     -0.33724229423635
  H   2.24122154868481     -3.52146214100722     -1.00399051956159
  H   0.49493516545260     -3.46580011085163     -0.99368154113855
  H   4.99322930633803      0.64844621495987      0.72612629583498
  H   4.97870372524207     -1.08227219295035      0.70733553464850
  H   -0.39869219650304     -3.55622410858931      1.05846510700698
  H   -1.95915845141683     -3.50472312591921      0.51127572587817
  H   -3.33586279295025      3.16124659290268     -0.14321168023556
