29
Coordinates from ORCA-job ./opt_b97-3c_parallel
  N   4.28535435806425      1.20564062243158      0.37735402605185
  C   2.98449164722453      0.80794362781272      0.15084730304018
  C   2.80870852079304     -0.52816778499039     -0.21973376906332
  C   1.64465201006542     -1.24639368912529     -0.42258955066947
  N   1.78918060252468     -2.45099524938264     -1.04056234631120
  C   0.29010049273043     -0.84480682449541     -0.06380927427104
  C   -0.68080396394260     -1.85971737296048      0.21606289701728
  N   -0.28462792682563     -3.20089754237183      0.44986999171008
  N   -1.98967583345731     -1.68185999055053      0.28035687426776
  C   -2.43753502635290     -0.44574438745907      0.07760344566307
  N   -3.72332695808541     -0.03016801301749      0.08314054109921
  C   -3.60037186617130      1.29812845717929     -0.06707785875033
  N   -2.34895155336792      1.79763441402712     -0.16630698634646
  C   -1.56500024353878      0.68097412697805     -0.08724612293619
  C   -0.17599718687317      0.51384748267457     -0.11767529843811
  C   0.65379430843978      1.71840487325470     -0.11894469052450
  N   0.00392571314033      2.87427461342744     -0.31574222265322
  C   2.01233856601473      1.79732270122619      0.18002987390570
  H   4.41653038955614      2.08382528161085      0.84717328472041
  H   4.93017946451513      0.49549742526004      0.67569263397165
  H   3.72651023139030     -1.06204705160126     -0.44225272708066
  H   1.05129273827539     -3.13522216253751     -0.91283990526132
  H   2.71939872614008     -2.81474490137603     -1.14659474854594
  H   0.39231704003894     -3.28238023451376      1.19690903221646
  H   -1.11548239796303     -3.72312725988047      0.69207592238199
  H   -4.46231952715553      1.94792256728765     -0.11252866964577
  H   0.50490013194124      3.73926661785136     -0.21993618776937
  H   -1.03264225104748      2.86859009749291     -0.32117841069545
  H   2.37766729522654      2.80134989104770      0.36949241711664
