31
Coordinates from ORCA-job ./opt_b97-3c_parallel
  N   -0.71754431431373     -4.14964111077896     -0.56234627741900
  C   -0.39162159081903     -3.04448590702067     -0.38775061796673
  C   0.08148438837560     -1.73616142659005     -0.19130108288932
  C   1.48472080187109     -1.56968762084538     -0.16484633750445
  N   2.32473315785106     -2.63434228604482     -0.30830954528342
  C   1.96672839666772     -0.28925419877788      0.06550333423473
  C   3.25242048638751      0.22251590999428      0.28789852117484
  N   4.43838047447302     -0.45835357544633      0.37786413433437
  N   3.22910968830077      1.57962551562883      0.41127279283576
  C   1.95624780279011      1.95727634397460      0.28443698945929
  C   1.07936961999241      0.84756321545378      0.08367797956218
  C   -0.31051996916609      0.71912223945450     -0.04381229644327
  C   -1.15209718478771      1.85797437965435     -0.24954536079531
  C   -0.55181815187831      3.09322450751296     -0.60374508016599
  N   -0.15166829552589      4.13873035915546     -0.91725028416390
  C   -2.54535206919764      1.97987162347391     -0.16067006095402
  C   -3.53227186848005      1.06698746972784      0.09954423295462
  C   -3.37352824493306     -0.31635659254958      0.25545047170195
  N   -4.49334957023062     -1.04580625700037      0.54587313316103
  C   -2.17561417141025     -1.02458011006999      0.14220555739436
  C   -0.84204346497577     -0.65063208040476     -0.02983842745830
  H   1.91777950034438     -3.50122735731817     -0.62193312985683
  H   3.22834421338628     -2.43842182290232     -0.70571151652943
  H   4.40187085642271     -1.33738507651768      0.87014210383341
  H   5.19472343531004      0.12893973900522      0.69519859681435
  H   1.69935927018249      2.99702099514940      0.37232325353074
  H   -2.90111580255145      2.98920870384430     -0.32302043086439
  H   -4.54128063791896      1.45507267912831      0.16159972324054
  H   -4.46572154311274     -2.04234173719598      0.42453717342340
  H   -5.39245161480044     -0.62616978104321      0.39444626924740
  H   -2.31233913435708     -2.09529999573919      0.22967740710806
