25
Coordinates from ORCA-job ./opt_b97-3c_parallel
  N   3.41295666106742      3.54863134649909      0.11964383518534
  C   2.89419510316304      2.51131074918560      0.06128642244748
  C   2.28371817562011      1.23237756000894     -0.00525843380995
  C   3.14143419232959      0.14901692337513     -0.31768910277022
  N   2.93631189140292     -1.13206589671925     -0.24400173841176
  C   1.80034173418212     -1.78391951730528      0.07031984216811
  N   2.03826639739668     -3.02336455068268      0.52484319865800
  C   0.45220574023620     -1.35346616719873     -0.10744128342536
  C   -0.54499180727090     -2.31798704859496     -0.30152018852747
  N   -1.86151797140289     -2.10435802092162     -0.37162700539225
  C   -2.25178872156088     -0.84799294214243     -0.18909286488719
  N   -3.50633868499477     -0.37667427406779     -0.18206798448794
  C   -3.31544760967830      0.94913782038403      0.00887144553780
  N   -4.34253427973940      1.80227887315266      0.10663489971510
  N   -2.02407205250996      1.39876109236428      0.12732383530591
  C   -1.32507812404567      0.27102887583543      0.01223672740590
  C   0.06544228082129      0.04509628849801      0.01555118773625
  C   0.90344902654489      1.15143356362691      0.13243409856905
  H   4.14143317451654      0.42160807400856     -0.64269619578652
  H   1.32019140295610     -3.58262978979831      0.94421882575589
  H   2.98952023368334     -3.34699464082563      0.54620084818846
  H   -0.24707616747974     -3.34618913013042     -0.47417036592257
  H   -4.15768006613561      2.78793645918361      0.10478636722450
  H   -5.26506098153225      1.47592272746867     -0.11305779890605
  H   0.38074563752996      2.08804160759627      0.28078298602930
