28
Coordinates from ORCA-job ./opt_b97-3c_parallel
  N   -5.54198019222493     -0.79696699590472      0.49032045028419
  C   -4.50359694682097     -0.30115557293373      0.31618169273046
  C   -3.24456461331745      0.27227370387731      0.10874129475231
  C   -2.94482804530890      1.61638908016994     -0.17424434536766
  N   -1.62759368270885      1.83578239303429     -0.32658435811286
  C   -1.01714007774722      0.62714765014336     -0.14223231532246
  C   -1.99318416486401     -0.39342527970790      0.12427593811280
  C   -1.58999720119388     -1.70681708355500      0.31324961346586
  C   -0.25020009299027     -2.01273451314662      0.19147796734800
  C   0.73041954712766     -1.03146024309013     -0.05794046573159
  C   2.08676097682652     -1.48584005372656     -0.32303017193896
  N   2.22022576037880     -2.71855553370624     -0.86271446939467
  N   3.21585259269945     -0.88570822668655     -0.03354586236128
  C   3.31802178990705      0.38163029491303      0.38781226906382
  N   4.40972298769884      0.63616583292740      1.14104037894239
  N   2.58371652466700      1.44336310533892      0.08354126977699
  C   1.32056038396116      1.42716735064159     -0.32403828915397
  N   0.85490356652211      2.57533504200585     -0.81282001823858
  C   0.35823947145374      0.33364868030461     -0.17781808917982
  H   -3.65686076797001      2.42070937152923     -0.27785509878532
  H   -2.31048773957783     -2.48222342686508      0.53814307801092
  H   0.06701421341449     -3.03352392047176      0.34716996121193
  H   1.45512673165974     -3.13801182790535     -1.35610126135017
  H   3.15155963785504     -3.01878740559570     -1.09122904601492
  H   5.11367294114722     -0.07383667285046      1.22017374893879
  H   4.66337666135874      1.59332716824261      1.30260696568728
  H   1.46338539155753      3.37330205493832     -0.73682975874444
  H   -0.17034962771080      2.69852862627937     -0.83509830532923
