24
Coordinates from ORCA-job ./opt_b97-3c_parallel
  N   4.76621754533697      1.39628718982746      0.00271235023686
  C   3.68691576943537      0.96440720807150      0.00221312334326
  C   2.40738610818239      0.35705793691126      0.00184879663585
  C   1.31160565852106      1.20637804431656      0.00126785347766
  C   -0.06127755321282      0.95873985568400      0.00086358370990
  C   -0.90827371321315      2.09134792091187      0.00042563945217
  C   -2.28583486676790      2.00381311732473     -0.00000828459239
  C   -2.87381268322631      0.74338588104139     -0.00004611038957
  N   -4.16506790030873      0.37099797774159     -0.00044921659407
  C   -4.07887061962630     -0.98270737901481     -0.00027630915675
  N   -2.84899074623012     -1.53263809382838      0.00020565410482
  C   -2.04152753066485     -0.44849855188606      0.00036121543601
  C   -0.64173213110961     -0.36883953990132      0.00084020554423
  C   0.06809388845263     -1.58807626253597      0.00113483186698
  N   1.33949907200710     -1.90723126118410      0.00178688019798
  C   2.39340241045340     -1.07659426810179      0.00226669406043
  N   3.56795213173890     -1.72060602934468      0.00320124029027
  H   1.57784442054846      2.25615882512776      0.00112946323545
  H   -0.44344633870568      3.06793772723740      0.00043601846490
  H   -2.89763810550866      2.89585362180411     -0.00032372623850
  H   -4.96663663047580     -1.59836759751652     -0.00051476794716
  H   -0.58817436353829     -2.45272384462709      0.00080701488446
  H   3.54610111329472     -2.72515810318816      0.00339322107276
  H   4.45115909041725     -1.24103658417079      0.00365204610448
