28
Coordinates from ORCA-job ./opt_b97-3c_parallel
  N   -4.28686024929522      1.45884288484000      0.24330214078380
  C   -3.20658718195665      1.04340307134749      0.13652304461779
  C   -1.88022375755602      0.57345476388506      0.01446626208405
  C   -0.82060022967198      1.47927138116458      0.06371717910173
  N   -1.08669317101532      2.84103214241212      0.15560219902104
  C   0.54512308621117      1.03296783204278     -0.04517783456212
  C   1.47395537646913      2.06643262230165     -0.28413248831701
  C   2.84426525923439      2.09883611606803     -0.28434834328248
  C   3.70916129512713      1.04810694769107      0.01434129315544
  C   3.40211165416393     -0.26684209266424      0.21956572595401
  C   2.16808316953951     -0.95530851702687      0.12012362714881
  N   2.24783426642278     -2.28467326891779      0.18902818193460
  C   0.83132182327813     -0.39128826367093     -0.01065159032388
  C   -0.25904335977897     -1.26770660373714     -0.07351042409982
  N   -0.25191635254643     -2.64245493470045     -0.09050403754145
  C   -1.54276082660042     -3.01956005837950     -0.14312835381130
  C   -2.42934407439539     -1.93489495745893     -0.15192761152038
  C   -1.62283658365632     -0.80139500828050     -0.10481883604394
  H   -0.55424405732413      3.33025118730997      0.85636233260835
  H   -2.06750497459032      3.05800784692290      0.24311487864736
  H   1.01021264109074      3.01156880677440     -0.53098806768580
  H   3.30179211406297      3.05228586834584     -0.51440677235419
  H   4.76308173607705      1.29522867404142      0.06797907741341
  H   4.24771024364071     -0.91632624230287      0.41781278981721
  H   1.36692901038855     -2.84014127675052      0.09820327399746
  H   3.14708508501668     -2.72445610183159      0.27425148334690
  H   -1.79890212039244     -4.06845194888254     -0.17368962919245
  H   -3.50547510664287     -1.96998324374347     -0.17745776739413
