26
Coordinates from ORCA-job ./opt_b97-3c_parallel
  N   -4.97763925705355     -1.48855047882047     -0.00155492116577
  C   -3.88225741560517     -1.09133195917648     -0.00107423083264
  C   -2.58543247047187     -0.54336690534608     -0.00068719578047
  C   -1.51732089575924     -1.44111969589206      0.00266306542670
  N   -0.21379839532301     -1.28139714581816      0.00396375127076
  C   0.45773341041542     -0.09404022552301      0.00211910386997
  C   -0.09044174475602      1.27217598186253     -0.00163729915639
  C   0.82086553318561      2.34968399842827     -0.00302418562324
  C   2.19835170812433      2.20579635085600     -0.00103178408388
  C   2.72816952776559      0.92746166550985      0.00254650631552
  C   4.03090771581650      0.36436107457167      0.00532456056382
  N   4.02431641445405     -0.97589194680309      0.00833214948034
  C   2.70831602030700     -1.33237176140045      0.00760491202272
  N   2.29217819026820     -2.58561434666968      0.00990803699696
  C   1.84105128846038     -0.18203747009841      0.00404059938331
  N   -1.38511350445945      1.64223494586325     -0.00395393703115
  C   -2.46994453082712      0.89410858935560     -0.00366537348228
  N   -3.62151679800021      1.59505743897613     -0.00670501756538
  H   -1.82192733008800     -2.48437131425932      0.00459027864297
  H   0.37820853199411      3.33483541788880     -0.00581323951483
  H   2.83313090311745      3.08251454617991     -0.00230487240699
  H   4.96830583783832      0.90236040678729      0.00519323239067
  H   1.28502000670899     -2.72161932301639      0.00891538334128
  H   2.95163212032198     -3.34486528463401      0.01220627223598
  H   -4.52194022183613      1.15101970612168     -0.00638687315771
  H   -3.55805760509814      2.59652214855663     -0.00848045324027
