29
Coordinates from ORCA-job ./opt_b97-3c_parallel
  N   1.58675569716586     -4.08983489004726     -0.27983421385799
  C   0.93521853587198     -3.12981221078712     -0.21865310159957
  C   0.07280338805019     -2.00994924140256     -0.14632117947084
  C   -1.31339185173934     -2.23411746848691     -0.12878425026619
  C   -2.15870276021010     -1.16235191147920     -0.01906550167432
  C   -3.57908572021075     -1.05452708019237      0.04947778472001
  C   -3.93006263523102      0.27511705451744      0.16014505942347
  C   -2.73488104971148      1.05149605718229      0.15458073512283
  N   -2.61632035725416      2.37777434789234      0.22756246314788
  C   -1.61799090445959      0.16030962292899      0.04692863516748
  C   -0.25351343991794      0.45283165599214     -0.00436615007994
  N   0.08571035395174      1.75628941420310     -0.02071884822408
  C   1.30874344501432      2.29327278194314     -0.06120432215308
  N   1.27866707581753      3.67173396987129     -0.11701324697967
  C   2.56200543895807      1.69533158311993     -0.00356109788119
  C   2.82047854684398      0.32128866086199      0.07403901679545
  N   4.12812145742241     -0.06794554235235      0.15507742858443
  N   1.98595576227034     -0.70960280992168      0.02395893634085
  C   0.65716737088193     -0.71537631121598     -0.05205456697873
  H   -1.68387214444028     -3.24824890144403     -0.18737699442308
  H   -4.26553308084265     -1.88679489175311      0.02006345727214
  H   -4.92975367269817      0.67337743380323      0.23436359680682
  H   -1.66335371242657      2.72842409160297      0.24817440775349
  H   -3.40586448631280      2.97237893188781      0.40152233520224
  H   2.10451763720763      4.13203356837655     -0.45718150296413
  H   0.42214047077592      4.05181850462943     -0.48095397180892
  H   3.42121009293674      2.35493172209566     -0.02530346924607
  H   4.81778265455431      0.57118782456968      0.50484352748689
  H   4.27210850603190     -1.04449722539524      0.34640269288400
