32
Coordinates from ORCA-job ./opt_b97-3c_parallel
  N   3.41029721505054      1.92906736379392     -1.39202169409857
  C   2.80538550780653      1.11173130028516     -0.82161388698353
  C   2.18507693307980      0.00864015645115     -0.20384188552647
  C   3.06785330502106     -1.07985909659628      0.06355478554373
  N   4.39534581583508     -0.84540500678834     -0.04759836732732
  C   2.68368038064007     -2.37241902202280      0.43809213708438
  C   1.40859367318858     -2.90502587728090      0.44530294619641
  N   0.21154842209566     -2.39520844406748      0.23801561657976
  C   -0.10337521649309     -1.07517438158665      0.10042650018042
  C   0.78359429497838      0.08480320204732      0.06727020668853
  C   0.19740571329678      1.37074526457676      0.22293517386073
  C   0.97539743859773      2.48845382255894      0.58842567215666
  N   1.47659314581075      3.46762944196825      0.96893550002429
  C   -1.20920493067727      1.61677662309541      0.13918436768740
  N   -1.70884829876827      2.88907592604833      0.25338877950852
  C   -2.01633826056944      0.51801720591562     -0.07331809929363
  C   -3.41894214837360      0.31483613831259     -0.24259798795863
  N   -4.36621200451915      1.27891376319620     -0.36403978108057
  N   -3.75283891683149     -0.98933134449246     -0.25178818043811
  C   -2.59007592597522     -1.66784222025142     -0.10855756753222
  N   -2.51030651934340     -2.99032501396096     -0.06387625058251
  C   -1.45527380131346     -0.78793049467526     -0.02289003776745
  H   5.03509839390378     -1.61710171818775     -0.05297535219905
  H   4.72971121116314      0.02970283933453     -0.41343681490853
  H   3.48342850779078     -3.06756537150942      0.66066115142641
  H   1.37737015234107     -3.97198669831422      0.65905354491518
  H   -1.05150556502974      3.59225593718250      0.55565749742706
  H   -2.59794544675911      2.96544015551970      0.71922106727174
  H   -4.08322965949540      2.13897186757199     -0.80448355886483
  H   -5.27068433509941      0.94297969766586     -0.65423947476917
  H   -3.33958634183082     -3.55635581074485     -0.08622253321923
  H   -1.57644713802157     -3.36675655734615      0.07829152569862
