27
Coordinates from ORCA-job ./opt_b97-3c_parallel
  N   -2.06778995091136      4.24590777052975      0.26872082661014
  C   -1.75708202563022      3.13074375332615      0.19094707627826
  C   -1.37257619689060      1.76298013536083      0.09270016657489
  C   -2.41264233267247      0.83196893015692      0.11664703338887
  C   -2.35161186713866     -0.54206500515946     -0.03412612596558
  C   -3.61209334528013     -1.19059559629038     -0.11326013993390
  N   -4.61645057444715     -1.76896598465237     -0.19502367137229
  C   -1.20790783074969     -1.39632224611420     -0.14975739244242
  N   -1.47422086225577     -2.68750426613779     -0.43037962885679
  C   0.16377659532891     -1.03792096190958      0.06540212001539
  C   1.06664315799427     -2.08640288199845      0.30581849976456
  N   2.40093326422668     -1.99563965330838      0.36037525473535
  C   2.92924066762697     -0.81092529933588      0.12679187538603
  C   4.28883533606481     -0.44336079558860      0.08267577381530
  C   4.32969877686011      0.92419918010795     -0.15306797766474
  C   3.01576290198277      1.45124245725073     -0.25085086973364
  C   2.11613687024122      0.40394870393091     -0.09108001855438
  C   0.70647752920037      0.31133581852207     -0.04631008813261
  C   -0.01364589204218      1.50932416518677     -0.03398661687026
  H   -3.40823557747925      1.24128257761046      0.21295004864995
  H   -2.41954152243341     -2.99748132640858     -0.57725123728372
  H   -0.74323027280469     -3.30523013496179     -0.72575315593756
  H   0.68710178048053     -3.07234680118064      0.53767254469987
  H   5.12235693601204     -1.11324090333694      0.21042607679488
  H   5.22828079147298      1.51443006380361     -0.25134895892273
  H   2.78940804176134      2.48993480175458     -0.43442470959361
  H   0.60108284798238      2.39726501194107     -0.06670891784919
