32
Coordinates from ORCA-job ./opt_b97-3c_parallel
  N   4.44338303478385      2.89111002232724     -1.45893482229626
  C   3.69323078741061      2.11943381340499     -1.02267711823636
  C   2.76730438385894      1.18524406281484     -0.48746358624838
  C   3.26434258348062     -0.05694114499306     -0.11837316432393
  C   2.58493780860258     -1.15463954162240      0.38949541813633
  C   3.39981754502658     -2.22826273777425      0.82376454829124
  N   4.01969213286438     -3.13954588321041      1.19528305175879
  C   1.16902550265297     -1.39547556065060      0.41295982824322
  N   0.79863774214050     -2.62942684319972      0.78722977608803
  C   0.12730250196374     -0.47988418108021      0.06558322193866
  C   0.31617929153680      0.98086521773781      0.11349354299923
  C   1.46356074519476      1.65131873003469     -0.25521269865487
  C   -0.82636945809972      1.82232224707879      0.37373470525185
  N   -0.63581943897405      3.14644440187195      0.65177652858708
  C   -2.12631436829809      1.31526931200646      0.25505640879099
  C   -3.22711634109971      2.16475070949699      0.49714210060156
  N   -4.06999479263848      2.93328603294303      0.71636336494713
  C   -2.31355104673619     -0.02516632222395     -0.10643079836472
  N   -3.47184008492110     -0.63280505285946     -0.31802645323722
  C   -3.14103748709068     -1.94294059239597     -0.55301436016896
  N   -4.12642430696275     -2.81583437218220     -0.83157720718246
  C   -1.76331258037152     -2.19863463276424     -0.44111727619339
  C   -1.16936497575296     -0.94948896469566     -0.16945121072484
  H   4.33576368793004     -0.17972602592585     -0.20386535827298
  H   1.48085830886979     -3.28890487858188      1.12160666095586
  H   -0.17293962401279     -2.81674436814667      0.97630462475730
  H   1.33876203450765      2.71188778523034     -0.42839365197646
  H   0.13308343562496      3.39607478564064      1.24695016950037
  H   -1.46240051708824      3.70087382775266      0.80487537463691
  H   -5.03195771571133     -2.43498453721477     -1.04302995261298
  H   -3.91092656389435     -3.72396678375376     -1.19795977492718
  H   -1.28224359729671     -3.12848860385084     -0.69208906456537
