28
Coordinates from ORCA-job ./opt_b97-3c_parallel
  N   -3.57173987771698      3.29156775799829      0.01142570020665
  C   -2.72315162035687      2.50023833964486      0.00744550522870
  C   -1.66566282940662      1.55897468161813      0.00027805673008
  C   -0.34471907831303      1.98183671714601     -0.01260670226784
  C   0.75736409489911      1.10449435324042     -0.02059341702316
  C   2.00258831352687      1.78392614167865     -0.03087193752336
  N   3.25361202355361      1.41956542265594     -0.02940159852435
  C   3.69321921090205      0.13971434537184     -0.02054095636599
  N   5.05156954545801      0.08016325710599     -0.04420640558344
  C   2.98538780536076     -1.05373805525816     -0.01935071062339
  C   1.60895151724632     -1.30280898854591     -0.02083300794542
  N   1.23460443614142     -2.58823574019499     -0.02308833147100
  C   0.53916410050906     -0.32298402512297     -0.01759287166466
  C   -0.79209076074947     -0.74659877499546     -0.01235648241362
  N   -1.31714398929881     -2.00670400146656     -0.01482971783755
  C   -2.65090239515284     -1.79302028604118      0.00032404842768
  N   -3.54336366018732     -2.80617629573576      0.04709048851573
  N   -3.06071579540640     -0.49810885153772      0.01115215712161
  C   -1.90794887036688      0.17751172570131      0.00382507572615
  H   -0.15078492283217      3.04409121074866     -0.01644381993630
  H   1.89296609443383      2.86557029766016     -0.03752766817209
  H   5.53723494202861      0.94608757999208      0.10633046944922
  H   5.53632233682494     -0.77190614742252      0.16606870453288
  H   3.60020277687088     -1.94795918203035     -0.02626464098449
  H   1.92674270458162     -3.31463905944535     -0.01930521386317
  H   0.23184620483028     -2.81672329733334     -0.01653238828407
  H   -4.49309068684478     -2.57103676598330     -0.17913688358302
  H   -3.22499709933516     -3.71635188714872     -0.23091380187175
