24
Coordinates from ORCA-job ./opt_b97-3c_parallel
  N   -3.16418929788245     -2.15255246338821      0.47998623854880
  C   -2.44753406318520     -1.02397843504452      0.17103502535926
  C   -3.16971129961845      0.14557188283918     -0.11130488038773
  C   -2.65521108011528      1.39707476602882     -0.37372306478866
  N   -1.44306470043437      1.90972105852209     -0.23597396250280
  C   -0.29006451881290      1.30073077412526      0.02158100407686
  N   0.71846040930575      2.15398170956383      0.28890771377280
  C   1.96664699640859      1.70413346846697      0.35057310416728
  C   2.32904045750374      0.39529687762389      0.07899454000563
  C   3.56456269635683     -0.27313750385520      0.01231875661535
  C   3.29973262946529     -1.62420122004394     -0.24930569494650
  C   1.91464009984011     -1.82029926623393     -0.32950638320279
  C   1.28336379543034     -0.57445522696616     -0.13341364267830
  C   -0.06012137442914     -0.17403410057351     -0.03093809927421
  C   -1.05624795976617     -1.13120774444871      0.14375116489988
  H   -4.14046940448582     -2.17027774135028      0.24620989562571
  H   -2.70489832582321     -3.04234618602664      0.40343236673206
  H   -4.24920569972760      0.05785051259642     -0.16463742241908
  H   -3.38837710584934      2.13192886009567     -0.69866296900171
  H   2.72025816627916      2.44548581671164      0.60191964661979
  H   4.53780828028858      0.17558511516609      0.13657253787168
  H   4.04439475562645     -2.39565447075079     -0.37357405085628
  H   1.43279135615604     -2.76157864228260     -0.54651148804210
  H   -0.67980714053095     -2.13692286457535      0.29511438890505
