28
Coordinates from ORCA-job ./opt_b97-3c_parallel
  N   -4.17094916399077      1.58019911171115      0.03584496074458
  C   -3.01367348101550      0.84207070414451      0.00229441050636
  C   -1.81272675952501      1.58344994770675      0.04831691995775
  C   -0.49573190879740      1.15340575177324      0.04278425297980
  C   0.51733948161813      2.14714754755216      0.07162873068173
  C   1.85860611995340      1.84793383562282      0.05529578985960
  C   2.26186165709089      0.51855985689783      0.00853407709891
  C   3.52937000879472     -0.10313495659533     -0.01248356946568
  N   4.74593154100039      0.51460787079443     -0.05166889994868
  C   3.32860855053150     -1.51819781990687     -0.05909499714396
  C   1.97593776985576     -1.76872068378705     -0.05798686110858
  C   1.27344167609369     -0.52333368949536     -0.01542993306766
  C   -0.09610012066557     -0.26957921782561      0.00913243214992
  N   -0.91808532256270     -1.33621236394756      0.01470069583361
  C   -2.23456177897288     -1.38415220850012     -0.00405989098424
  N   -2.73676648029141     -2.65685778283386     -0.04188408451963
  N   -3.22078809613125     -0.46135318015165     -0.03213786035583
  H   -5.00193561731395      1.07242711550270     -0.21373652638076
  H   -4.13864863561672      2.53859256010262     -0.26083019688542
  H   -1.94561149378272      2.65882624513095      0.09431467692271
  H   0.20300519383877      3.18219437989203      0.10274478586875
  H   2.57940515398744      2.65844364996733      0.07015578873785
  H   5.54276627975931     -0.03132792683977      0.22632795785747
  H   4.78865030300039      1.47007336146479      0.25740637520118
  H   4.11836896969383     -2.25363780488272     -0.09392086897385
  H   1.50392286097409     -2.73672424076046     -0.08216374728074
  H   -3.70446616609777     -2.77118174500412      0.19715875943889
  H   -2.09957845802864     -3.39475257853284      0.19523766407595
