28
Coordinates from ORCA-job ./opt_b97-3c_parallel
  N   5.07600801874228      1.09419867980146      0.71285730524706
  C   4.04995908046140      0.59148757198344      0.49202392733170
  C   2.78376601080499      0.05378390200756      0.23592549078924
  C   2.46422531215516     -1.28795968905380     -0.03307380218068
  C   1.08746398523977     -1.39009182092891     -0.18193212473901
  C   0.24333422826395     -2.48430775650247     -0.40554237962309
  N   0.69252670103230     -3.70385630254583     -0.75579082117098
  N   -1.08568797265061     -2.38052553215276     -0.24812501517748
  C   -1.64699343097407     -1.19868023628777      0.00087111401502
  C   -2.99556107214513     -1.27328255297293      0.42176614543034
  C   -3.89839227373533     -0.29878714410190      0.77602386337051
  N   -3.88984197493674      1.02987717915282      0.61697963066816
  C   -2.88904304911432      1.68101813504849      0.06517683183478
  C   -1.57704110187489      1.30309482399933     -0.27362094615642
  C   -0.88061343911190      2.31397663021804     -0.96697546113250
  N   -0.30701185488056      3.15063144196469     -1.53965067141284
  C   -0.88995730074297      0.05942744356553     -0.06117845039794
  C   0.49226937917773     -0.07699212149897     -0.02728927449050
  C   1.59123449971363      0.82969778201887      0.23458099107684
  N   1.56591327461062      2.12808538516791      0.58965831403978
  H   3.19134814641916     -2.08220162705255     -0.08966646655759
  H   1.67179840723835     -3.90680235507524     -0.81132672483917
  H   0.04218789984904     -4.46875153311804     -0.74160509246408
  H   -3.32984430857524     -2.29297882323990      0.56176560936600
  H   -4.81833792256229     -0.66580258855321      1.22117398568730
  H   -3.11688302175937      2.71949406325680     -0.15973235710353
  H   0.88436203154344      2.74568116609549      0.17531630027779
  H   2.46519907131111      2.55921894650382      0.74053995941139
