35
Coordinates from ORCA-job ./opt_b97-3c_parallel
  N   2.85941276831029      4.00800964127491     -0.86491503043493
  C   2.48672634673576      2.93580258234312     -0.61594503252929
  C   2.12354851816768      1.59850543793805     -0.31834983998167
  C   0.77822386353611      1.34249745057458     -0.16848851283287
  C   0.04289286199602      0.15764058648799     -0.03748788003142
  C   0.57857996291301     -1.19705897548589     -0.07647307390648
  C   -0.35405541040287     -2.24066799499299     -0.32407026668136
  N   0.04603425096354     -3.56002011354431     -0.57339626208443
  N   -1.67824914819726     -2.09522220212094     -0.32260794712888
  C   -2.18205752883514     -0.89673357687339     -0.09012859887079
  C   -3.53800271599906     -0.53051947044895     -0.00083495322807
  C   -4.66885802487658     -1.34403891613071     -0.07678034249990
  N   -5.65370670980822     -1.96236927955995     -0.13076343915555
  C   -3.57452808562928      0.87850585118136      0.16239325004444
  N   -4.67711289152677      1.61692741495917      0.29867747022815
  C   -2.23761377024688      1.39180597064713      0.16976473177817
  C   -1.97300893224586      2.74576951823914      0.36341236842756
  N   -1.81504691301787      3.88964788117947      0.52778021998776
  C   -1.35728158558645      0.29793421482756      0.02752000550982
  C   1.92861510434145     -1.50884411133128      0.30822389662929
  N   2.16203607178665     -2.73492034455737      0.80421779970793
  C   3.08337941612323     -0.66447407625283      0.24644952036647
  C   4.30495349447762     -1.28861458483472      0.57333299437260
  N   5.32217268263154     -1.79396714434405      0.83121924337259
  C   3.21185071028160      0.68675069425502     -0.14355430003671
  N   4.44735454913593      1.18696400785037     -0.30142492964043
  H   0.17351660175714      2.23467872049407     -0.22973504865824
  H   -0.76475863770369     -4.11226675752056     -0.81331131561631
  H   0.76706737173890     -3.65344572104732     -1.27417758591612
  H   -5.58443993076640      1.18648303624745      0.30257882757596
  H   -4.62162997237034      2.61464181330878      0.39970649836174
  H   3.09433688473965     -3.03521171879806      1.02997253666584
  H   1.42749392043730     -3.43016484245308      0.77891194619350
  H   4.58264105453996      2.16713885964338     -0.48201531490526
  H   5.26425174029910      0.62521826884403     -0.13624065948309
