27
Coordinates from ORCA-job ./opt_b97-3c_parallel
  N   3.46974893391833     -1.65659825614904     -1.20430813292293
  C   2.69624268383938     -0.92127770272482     -0.74596498916097
  C   1.79654256370100      0.08574373386373     -0.30432576188525
  C   2.37956233126704      1.36432314960973     -0.35120818942654
  N   1.93630419901256      2.55534222943902     -0.02581274625283
  C   0.66249589688813      2.85615085204002      0.24319109937072
  N   0.48098711859322      4.14198891079624      0.64144778572119
  C   -0.48705159971349      2.06609734423943      0.06222726311241
  C   -0.64042871325565      0.69685816425725     -0.08538034974117
  C   0.46143354158867     -0.27782408226723      0.02732222737975
  C   0.13434175753118     -1.61022746619634      0.34383750213668
  C   1.10794307356619     -2.54228264568785      0.77579410157946
  N   1.81937811660325     -3.34451202246780      1.22210823118172
  C   -1.20095073659510     -2.07379536609803      0.32553750215997
  C   -2.22166978317129     -1.23031284886285     -0.00922982380312
  C   -3.62195007270359     -1.43234301016847     -0.14130137466140
  C   -4.19274525377653     -0.20802349107865     -0.45150879784444
  C   -3.18189247157595      0.77958199748459     -0.50216455027745
  C   -1.94986253194406      0.17237822663780     -0.23623246754194
  H   3.41609587248875      1.36465375545312     -0.67177485345786
  H   1.30738169663603      4.68179771790121      0.82770072317229
  H   -0.37505653436938      4.43148712238879      1.07544780701513
  H   -1.41627252346628      2.61862066477492      0.11360452232909
  H   -1.38535681097680     -3.11212165565709      0.56594974884759
  H   -4.13490133752309     -2.37379795703064     -0.02614693134980
  H   -5.23991588355460     -0.02919546943075     -0.63906034842279
  H   -3.35201477200796      1.81670130283480     -0.74801561605717
