30
Coordinates from ORCA-job ./opt_b97-3c_parallel
  N   -1.72764316341960      2.77459313509076     -1.39642968625936
  C   -1.70847831007478      1.71189862089256     -0.90303571265634
  C   -1.72218669468819      0.46587133942089     -0.28508680195677
  C   -3.00945608151834      0.02862478870618      0.17845029215437
  N   -3.95709551094480      0.97520043139906      0.36493938039949
  N   -3.42813117160243     -1.20067012187814      0.44778371154390
  C   -2.71089735967898     -2.30360034721161      0.20328164144042
  N   -1.46503052166230     -2.56597613622188     -0.08218489468711
  C   -0.41544305644885     -1.69332636030351     -0.13951807692530
  C   0.81959806924567     -2.32486939930547     -0.24007243436395
  C   2.04315239465664     -1.65114822638187     -0.20864112463868
  N   3.23864181033839     -2.34777359373967     -0.26172276251237
  C   1.99769685844741     -0.26856664662703     -0.11784334555231
  C   3.01131421429886      0.71238681146894      0.05125671951698
  N   4.35428846608698      0.51491413701186     -0.02309751391607
  N   2.50855072306684      1.92079005265989      0.33673000260107
  C   1.16022594573698      1.79200807084085      0.30884548855749
  N   0.41899311266113      2.84468097156722      0.66870910961363
  C   0.75035306379403      0.42668753503571     -0.00645937888519
  C   -0.47803956041783     -0.23395050208310     -0.11147047448720
  H   -4.89692862421216      0.64720062310987      0.49747440694317
  H   -3.81555380035765      1.92443987827870      0.07040001296422
  H   -3.32315075922448     -3.20073711504127      0.27566948258315
  H   0.79499724698645     -3.40446290351200     -0.29648850501231
  H   3.13855556965220     -3.34151280963456     -0.13133357789401
  H   3.96554964085712     -1.97967778767791      0.33259327544224
  H   4.89468338035997      1.36574090032807     -0.02621965171770
  H   4.66937444104963     -0.17032376714781     -0.69062604638857
  H   -0.49507369498401      2.98513884991821      0.25969893843171
  H   0.95087145749046      3.68521159303556      0.83075060166650
