32
Coordinates from ORCA-job ./opt_b97-3c_parallel
  N   -3.34318994045783     -3.47487670967344      0.59786163004909
  C   -2.55674452335497     -2.63978032478050      0.41334999636085
  C   -1.61420754675123     -1.61057068597058      0.18160639362143
  C   -0.26005687837095     -1.90827512842040      0.10452991359650
  C   0.74151978466689     -0.94208862756251     -0.07860823477396
  C   2.06841466037065     -1.47271340805250     -0.30964767074335
  N   2.12897997264941     -2.80257271332897     -0.67912188054388
  C   3.28457666677188     -0.85520652667690     -0.12237994011989
  C   3.55781502512430      0.46674065802135      0.24690484405774
  N   4.88533475900896      0.75954971232000      0.49296151011445
  C   2.66537911915924      1.52399652626012      0.25467434308362
  C   1.30837372591387      1.57112781593000     -0.08302717945294
  N   0.80031380473165      2.79558171466380     -0.29227841871663
  C   0.36958069666408      0.45668941482612     -0.12519449541834
  C   -1.00982297739268      0.74501718038908     -0.12525357348773
  N   -1.62206460526681      1.96171796353945     -0.20754021334393
  C   -2.95407760106127      1.72653403734769     -0.11588946871869
  N   -3.83910237796652      2.76430800293952     -0.23298384578481
  C   -3.25617981721666      0.36357052407282      0.03134697803514
  C   -2.02496004001648     -0.28167270587639      0.02845194174753
  H   0.02776722798328     -2.93550136211615      0.25547571989401
  H   3.03162164586165     -3.13521089489517     -0.96909438202672
  H   1.38201084616287     -3.13982228653080     -1.26010746206071
  H   4.15982529907571     -1.46911381249414     -0.30490511914965
  H   5.07338423384337      1.63211898491919      0.95459544827449
  H   5.45145863799043      0.00462657677385      0.83878770660066
  H   3.10679075289933      2.49457417909702      0.45726368213832
  H   -0.22892431845259      2.89674995677250     -0.32370472587497
  H   1.39073853432903      3.59668395746611     -0.15874509025537
  H   -3.45321777026175      3.67067592285278     -0.02863673262131
  H   -4.74809920916587      2.61455927629736      0.16848602121980
  H   -4.23012662667057     -0.08658962741110      0.12578816239926
