29
Coordinates from ORCA-job ./opt_b97-3c_parallel
  N   5.64749261941817     -0.15238526231260     -0.39685620910186
  C   4.49385096362878     -0.23465178875733     -0.28384138618638
  C   3.08913558878536     -0.36150307672049     -0.15420102895491
  C   2.54137070200796     -1.65413383126037     -0.38789631474831
  N   1.33982014728339     -2.10745271602611     -0.23288828183808
  C   0.16935050030712     -1.46265219213669      0.05103978551249
  C   -0.88987898666831     -2.31213833759712      0.28876650609726
  C   -2.23074993086482     -1.88554959314875      0.33502781050304
  N   -3.21113044549260     -2.78793735121665      0.61720373290471
  C   -2.49133907703375     -0.55043014703523      0.04542231065540
  C   -3.70085437246482      0.12332953681222     -0.19983917183771
  C   -3.42843133293923      1.43274268521832     -0.56130979067030
  C   -2.03584306144347      1.64416480985745     -0.52331827542298
  N   -1.45027728412517      2.77808495545035     -0.96622592816461
  C   -1.40244376760726      0.38834452795662     -0.12813295387162
  C   -0.07680382180309     -0.00376723591058      0.03502706610249
  C   0.98185801657919      0.91988092537684      0.33455659470371
  C   0.62613721384169      2.14931961258422      0.92485010759834
  N   0.34088445966004      3.17548376328204      1.39788306362155
  C   2.36559652982676      0.75442835637353      0.22090052483053
  H   3.25959013242418     -2.40092081101234     -0.71772431355637
  H   -0.65700024115021     -3.36606144912204      0.35081179669052
  H   -4.16140591542567     -2.55348340552526      0.39581026454363
  H   -2.99108990501471     -3.76430151529722      0.53511079445180
  H   -4.69294352942710     -0.29655749488316     -0.12396967485543
  H   -4.15394297735367      2.18273794117738     -0.83495623266439
  H   -0.60334115879280      3.10400674922036     -0.52643240467276
  H   -2.07943635922599      3.52584186128695     -1.20746394444230
  H   2.94909235997055      1.63282275836578      0.46330655587274
