32
Coordinates from ORCA-job ./opt_b97-3c_parallel
  N   5.12260945792392      1.50739087616996     -0.12573695370863
  C   4.22601250311272      0.78055062888461      0.00850141078695
  C   3.11466580104461     -0.08837482408858      0.11687308342553
  C   3.34986105744723     -1.34060707934687      0.69001158138750
  C   2.60077898301719     -2.48301491856087      0.60203130989328
  C   1.33403380429963     -2.65609630156784      0.02482550298359
  N   0.98551122277707     -3.92832207392641     -0.26636297230933
  C   0.33281686597161     -1.62442871163317     -0.10438420395469
  C   -1.00755295846751     -2.05759132807181     -0.10196610983037
  C   -2.08548332556659     -1.18955111739584     -0.11972302849602
  C   -3.38896649403968     -1.75164158472726     -0.12096087498784
  N   -4.42201034962463     -2.27808453714997     -0.13349270866474
  C   -1.85489746176344      0.18920992671311     -0.07416111707686
  C   -2.72581826630302      1.29593918931092      0.04183740868264
  C   -4.12875732952332      1.28614033680543      0.06779809247363
  N   -5.29012786042708      1.31767169446235      0.08747456390721
  C   -1.93084649232755      2.44445820944775      0.17571613259640
  C   -0.57539885933529      2.09570571809211      0.11420928665823
  C   0.46362953906031      2.99887928619645      0.36409191227979
  N   1.33756524310971      3.74393093050485      0.55594029149549
  C   -0.49218374611252      0.66994815968616     -0.06236577264693
  C   0.59674764057902     -0.21720166177916     -0.16670622960974
  C   1.90883788841016      0.33993137159498     -0.47964645857374
  N   1.94839669906866      1.36353590666402     -1.33220397397570
  H   4.32441345932408     -1.45578225341077      1.14513127206204
  H   3.08630750246435     -3.38874219333701      0.94411583644607
  H   0.18966660284693     -4.12871563081361     -0.84155753179371
  H   1.67207850193713     -4.65642781986267     -0.19428162592395
  H   -1.23623526494831     -3.10411685760858      0.01061201391508
  H   -2.30356951379990      3.44221865653774      0.33611509235372
  H   1.09302274792948      1.76990428813005     -1.66719581945988
  H   2.77329148831591      1.93877156897968     -1.40476323723626
