27
Coordinates from ORCA-job ./opt_b97-3c_parallel
  N   3.90039850191708     -3.67046109621352     -0.00887285490370
  C   3.20238466096764     -2.74411277426906     -0.00474895641202
  C   2.34875653750600     -1.60461180568031      0.00037875695002
  C   2.98545859719284     -0.35644206742990      0.00589324809626
  C   2.44228239801316      0.90596047396738      0.01138990903740
  C   3.39360996642617      1.96211402392379      0.01600845855311
  N   4.13709641935493      2.85389543221317      0.01961743986339
  C   1.06049102759911      1.32613219170947      0.01299505001577
  N   0.84425251347049      2.63118031264207      0.01821511526136
  C   -0.11223661969023      0.47112011789821      0.00965741993310
  C   -0.11783348451232     -0.97890961654178      0.00350901106742
  C   0.98786317375983     -1.84443197063085     -0.00048808907991
  C   -1.35508523385642     -1.67487906531795      0.00087379298057
  C   -2.59140676450309     -1.05847602806963      0.00378211519442
  C   -3.78047882070745     -1.82971419348659      0.00073500368979
  N   -4.73647482511243     -2.48536993227019     -0.00240066326700
  C   -2.61641081359755      0.34248979620325      0.00972359765810
  N   -3.65194351277106      1.19265261531708      0.01353828375260
  C   -3.05190343780234      2.40149699318035      0.01839243789228
  N   -1.70756304775951      2.40495849278278      0.01802544181284
  C   -1.37548241995699      1.07886394967252      0.01244297049078
  H   4.06621241325079     -0.38989580502446      0.00580246357688
  H   -0.14224026936310      2.96966855262776      0.01980214345603
  H   1.61574370548326      3.27960887876040      0.02090151240266
  H   0.72685766971892     -2.89387607503097     -0.00503578930633
  H   -1.32522463930806     -2.75343579747228     -0.00372849033493
  H   -3.61888159531971      3.31960257353919      0.02234908631911
