29
Coordinates from ORCA-job ./opt_b97-3c_parallel
  N   -4.76999616927744      1.15634897057433     -0.22920841580784
  C   -3.69328959566685      0.71350247071242     -0.17492120986758
  C   -2.39511753781826      0.17739103817873     -0.10246998632465
  C   -2.28572571060765     -1.22053613061852     -0.32476035918760
  N   -3.37891419502554     -1.85624667799861     -0.82193086335896
  C   -1.19903497595143     -2.01838730222787      0.02654935695660
  C   0.09198956309262     -1.66522989889485      0.38472743560223
  N   0.87101313033964     -2.63863294941799      0.89681918444583
  C   0.73955711487474     -0.38728069051511      0.14344239509316
  C   0.04783676218389      0.86400306473860      0.13898225522205
  C   0.81557212024542      2.04683197514885     -0.04014812960086
  N   2.12511221828761      2.11766662538492     -0.17019385523828
  C   2.79194811604324      0.96563340305032     -0.14659562955411
  N   4.12287554193727      0.84976242748695     -0.27622723269153
  C   4.34769488371649     -0.48353254057743     -0.27670644091065
  C   3.19784294588827     -1.26382597996115     -0.12583061693806
  C   2.13152653933624     -0.34270715125808     -0.02785811458451
  C   -1.36755888166145      1.06136081033685      0.30590457327032
  N   -1.76425602629310      2.25419410439294      0.79026796612640
  H   -3.41844169860961     -2.85773019953425     -0.79530796172553
  H   -4.26287376169620     -1.38006731229899     -0.87095906142417
  H   -1.40292949506207     -3.08343041308734      0.03833882763379
  H   1.79052199994483     -2.41187739440025      1.23450274508785
  H   0.47195571208315     -3.51554746860524      1.17417076183985
  H   0.29863746454218      2.98833607625492     -0.17872313043492
  H   5.35401397037902     -0.86022647463478     -0.40064348236283
  H   3.17054011461317     -2.33801820401940     -0.20425881003985
  H   -2.73598951890495      2.50691597602930      0.82802746723733
  H   -1.09959544963319      2.90100833106070      1.16629702263649
