34
Coordinates from ORCA-job ./opt_b97-3c_parallel
  N   -5.89212141758757      0.99316506212359      0.20216487625076
  C   -4.76434868681228      0.70065124764115      0.13451177050994
  C   -3.40842147684315      0.35192487246212      0.06007869866517
  C   -2.45461523398490      1.32588163270472      0.44744755114112
  N   -2.93761408225492      2.53286790425971      0.87101489564192
  C   -1.06689597616891      1.21086958209659      0.35655743690093
  C   -0.25349703536045      0.11168039795834      0.07281815495687
  C   -0.75155444718648     -1.28063786153387      0.01583656043193
  N   -1.97310457461508     -1.62666979069509     -0.36899064957865
  C   -3.08605458502497     -0.92764687700327     -0.48476281874204
  N   -4.06051335508831     -1.57219427931078     -1.17357030304153
  N   0.05628906671079     -2.30878923672144      0.30414065717696
  C   1.37563913184607     -2.13972504978107      0.40454464108846
  N   2.10418472265647     -3.24734884196621      0.77016587590002
  C   1.98143920507640     -0.92631062026986      0.08740465626649
  C   3.32069657948033     -0.52343923301360     -0.06487177304147
  N   4.42927934459196     -1.31368151431083      0.01550604280943
  C   3.32935376528624      0.88076446923386     -0.29668574880613
  C   4.45451580033313      1.65116352948843     -0.58291290801690
  N   5.39499704951130      2.29502507545285     -0.82931475415481
  C   1.98668809790092      1.34045525611652     -0.29970806763784
  N   1.61607372875165      2.63210102938452     -0.51279769525487
  C   1.13548230453962      0.22699010051855     -0.05818277305045
  H   -2.31918160656127      3.13404089178774      1.38355601752570
  H   -3.90976341938904      2.60860495548141      1.11621543849583
  H   -0.53495919528151      2.10810013404238      0.64696345476535
  H   -3.92326854839622     -2.55372900830334     -1.33313698126815
  H   -4.99654048244956     -1.21043571477305     -1.20869709162649
  H   1.52331456655202     -4.00482106044201      1.09490201296764
  H   2.90480413170649     -3.07320334130820      1.35648139136686
  H   4.31038757234492     -2.26949392241697     -0.28026648568580
  H   5.28783088857615     -0.90143896008096     -0.31360108828392
  H   0.69380545453009      2.77609553695703     -0.89126419397301
  H   2.31691835170525      3.23173193542631     -0.91930500640386
