30
Coordinates from ORCA-job ./opt_b97-3c_parallel
  N   4.12714587876950      2.88106364907416     -0.40292277181940
  C   3.18081249350137      2.22217804163427     -0.27123918113211
  C   2.02898605006422      1.41267597292444     -0.10432526897794
  C   0.78801391285553      2.01268974258573      0.05350190642383
  C   -0.38084325096865      1.25206841381228      0.21280903787309
  C   -1.64430350359596      1.95809638158919      0.35065880004242
  N   -1.61676580164523      3.18689324601594      0.90296288363112
  N   -2.81101224801603      1.58271772707307     -0.12925943468257
  C   -3.10196156384408      0.33208636287374     -0.49906614872247
  N   -4.04535021078524      0.20028816212837     -1.44758403772250
  N   -2.68352269735543     -0.79550114288060      0.07543274402536
  C   -1.48990289840657     -0.94880155694947      0.60052189611087
  N   -1.33969087803676     -1.91869696414560      1.50534714090946
  C   -0.30206047693859     -0.16650279634479      0.24042456563148
  C   0.93150581212868     -0.79049981639353      0.03217706836970
  C   1.34856574636754     -2.15292167544510     -0.10254247325326
  C   0.55362608585936     -3.29894077641907     -0.17030713249091
  N   -0.12089175439756     -4.24981949892069     -0.20810887681982
  C   2.74819014822743     -2.14409917267773     -0.31994849808286
  C   3.22648596783755     -0.84000490123829     -0.32609939289056
  C   2.13539854096723      0.01408545851226     -0.13009602692214
  H   0.72465268927222      3.08747084321556     -0.01649050549165
  H   -0.83727841656427      3.48596167123947      1.45678448637774
  H   -2.48262471872376      3.69001756898804      0.97997421336954
  H   -4.53980477187656      1.01553122955559     -1.75889645086357
  H   -4.44199369410502     -0.70622629607762     -1.61406370239322
  H   -0.41479121308982     -2.20053776757355      1.77774930207946
  H   -2.05795149874815     -2.62115103943236      1.56800670523659
  H   3.33376349075189     -3.03554821172971     -0.48123467633654
  H   4.24787077869486     -0.53230817599385     -0.47787095647898
