25
Coordinates from ORCA-job ./opt_b97-3c_parallel
  N   -5.16457225951331     -0.28495566757179      0.00129624427821
  C   -4.02882352212863     -0.03009519905664      0.00147748801423
  C   -2.63837177585559      0.20642915007325      0.00133278392285
  C   -2.20957935434101      1.52609476589981      0.00138003734648
  C   -0.93109507645873      2.04806341104017      0.00123176324574
  C   0.31514645651561      1.41527262939588      0.00110724491565
  C   1.45711553757840      2.24011750983381      0.00102842781267
  C   2.74663533150982      1.74643323329775      0.00107067559871
  C   2.94289824078734      0.37304551942144      0.00119624260064
  C   4.07300354397018     -0.46139685121040      0.00126075609085
  N   3.72457739597200     -1.77364605735096      0.00134096995121
  C   2.38176217897148     -1.81290406878056      0.00132160077775
  C   1.81486886271011     -0.51361622206881      0.00124369650231
  C   0.48936809355677     -0.05929332625261      0.00114718843751
  N   -0.45917054232965     -0.99901910440026      0.00104990251238
  C   -1.77581179815438     -0.94797195976656      0.00105590751977
  N   -2.37314708294714     -2.15936500725753      0.00080586335396
  H   -3.00597055581380      2.25913717816254      0.00154623175015
  H   -0.89011520822871      3.13030088847071      0.00125746664472
  H   1.30039756631917      3.31042328160085      0.00096686281468
  H   3.58574078500786      2.43084828387844      0.00101541579715
  H   5.11175536061588     -0.16558755086705      0.00124916617604
  H   1.85185079051309     -2.75234530394410      0.00136990921198
  H   -1.78198620016824     -2.96998568433065      0.00061647458124
  H   -3.37034589988845     -2.27223515651671      0.00069604104307
