24
Coordinates from ORCA-job ./opt_b97-3c_parallel
  N   4.26231947910323     -1.14983094932192      0.52011244826682
  C   3.11439816840014     -1.05058236187710      0.38203704483622
  C   1.70811816099752     -0.99520923223153      0.23769468635087
  C   0.96168869451015     -2.17607628986460      0.29718262128207
  C   -0.38736124388539     -2.15142421173218      0.02683721370510
  C   -1.33809033447680     -3.18252492336646     -0.04351850099021
  C   -2.58196198894458     -2.60753865166746     -0.34649632973194
  C   -2.44362050480261     -1.22512345719156     -0.43911530898686
  C   -1.07844996520660     -0.89315049785975     -0.21175516627470
  C   -0.38934091210543      0.31228059815768     -0.11399910615976
  C   -1.01642886922479      1.55536019964382      0.18129746307468
  C   -2.39582632171703      1.56521534439093      0.51136739034592
  N   -3.52082178478275      1.64572829954587      0.78834080302437
  C   -0.41964446724780      2.82406151275047      0.33152790193819
  N   0.74568786219995      3.28137637162441     -0.07541041129044
  C   1.68626358900049      2.50342393726594     -0.60795829356149
  N   1.91047535009508      1.22157810926942     -0.45341486313538
  C   1.09692143706177      0.24085803920535     -0.08067434118217
  H   1.47103075589728     -3.10835207119147      0.50021758136174
  H   -1.13993339232456     -4.23114231018021      0.11403177904923
  H   -3.50458783874057     -3.14781280365788     -0.48623634084799
  H   -3.23743231316905     -0.54128761871325     -0.68011583084349
  H   -1.05175630879307      3.57035490741902      0.80190013537203
  H   2.44939704045536      3.03329449368241     -1.16837231980285
