31
Coordinates from ORCA-job ./opt_b97-3c_parallel
  N   -5.29536590630068     -1.33837688853439     -0.13443163926019
  C   -4.21183770793483     -0.90917037389977     -0.11350662428866
  C   -2.87707609736428     -0.46327349198931     -0.07685784703716
  C   -2.66013090247336      0.91222369254087     -0.07012567947416
  C   -1.49614351599157      1.65245922941234     -0.01083208241057
  C   -1.70425485560000      3.05409395265885     -0.00375329795522
  N   -1.87679597762611      4.20444529679772      0.00362106217290
  C   -0.12625118551267      1.18976172553530      0.02622843342525
  C   0.88504757553295      2.15214214875081      0.05862225416593
  C   2.24658445621590      1.85287866539387      0.05351388096955
  C   2.61998790887092      0.53682874268126      0.01204489843556
  C   3.90923128762150     -0.12107417228633     -0.01921296888943
  N   5.08922908523376      0.52868345337434     -0.04176031042389
  C   3.71287172901497     -1.49999694917417     -0.07476197943299
  C   2.32556677201880     -1.73945207307718     -0.06697047999134
  N   1.69053254649017     -2.90416034363327     -0.10321208665324
  C   1.62137682911961     -0.47381656705494     -0.00960982802605
  C   0.24926656248497     -0.21878165436757      0.01371952696068
  N   -0.54527720259538     -1.33130411129869      0.03928869139537
  C   -1.85457061445466     -1.46598226625666      0.01229415647265
  N   -2.28749320874968     -2.75653207252413      0.04337368471322
  H   -3.56626349746732      1.50230359884230     -0.10732352312399
  H   0.59486425383802      3.19163679320061      0.07783560580775
  H   2.96366993507181      2.66431841485013      0.06746293112498
  H   5.11977156088495      1.50430605311607      0.19009955236399
  H   5.94120001558136      0.01878865283584      0.10393062301680
  H   4.48315428442241     -2.25333241029549     -0.11716513290846
  H   2.17447809274899     -3.77731088238759     -0.20917679754750
  H   0.67278954153004     -2.82502436609459     -0.11171029127595
  H   -3.26094314140633     -2.95188963311635      0.20130625048445
  H   -1.63034775450431     -3.45270635119982      0.34221262168973
