25
Coordinates from ORCA-job ./opt_b97-3c_parallel
  N   -4.24015931034070     -0.81692675494432      0.36593284494984
  C   -2.98816069820790     -0.52912943200498     -0.02750373231937
  N   -2.78727121201550      0.75441607635400     -0.35617530765438
  C   -1.60988082248077      1.34977461806994     -0.38098622316615
  C   -0.31338865765661      0.91482378711310     -0.07525212809419
  C   0.70923045533487      1.90336455634752      0.05074695874025
  N   0.35981026403314      3.25676277910803      0.07130457899868
  C   2.04877519921072      1.54002979359336      0.10641934732686
  C   2.43057873790857      0.20715126713746      0.03884441725002
  C   3.64101013792107     -0.48271939150746      0.06760135507616
  C   3.28800677951608     -1.84276067530821      0.01084035402915
  N   1.95838328656978     -2.06642042568305     -0.04598158179488
  C   1.40202649400952     -0.83059418250681     -0.03188958993344
  C   0.04711362886450     -0.49261166323272     -0.05628010893394
  C   -0.87596137330647     -1.55926308942109     -0.15806710295678
  N   -2.18322868165305     -1.61114756518175     -0.10682942034424
  H   -4.50158502503777     -1.77770085727883      0.49017488045979
  H   -4.94211739440377     -0.10111415284215      0.32771368812758
  H   -1.67812044080436      2.38631261386772     -0.69724723127168
  H   1.14948739375252      3.86590764712089      0.20978842537947
  H   -0.37666399646471      3.49441757926390      0.71573525572912
  H   2.79825152087932      2.31702435799363      0.21524583796076
  H   4.63549792779766     -0.07039355272537      0.11927802248335
  H   3.97259787724813     -2.68017177843326      0.00866294199017
  H   -0.39831773827426     -2.52730624939948     -0.26697598413213
