28
Coordinates from ORCA-job ./opt_b97-3c_parallel
  N   -2.97938772713054     -4.06791860474312      0.21475633683347
  C   -2.55552269440390     -2.99034029926643      0.15128954959487
  C   -2.05112566491509     -1.66002146180211      0.07464389748550
  C   -3.00743472182049     -0.63846075251316      0.14441290639125
  C   -2.84066173607001      0.72253755939098      0.00961983114101
  C   -4.04754501228588      1.47302561346122      0.00032943196112
  N   -5.00308850250351      2.13246696179483     -0.02555839064237
  C   -1.63604111177410      1.48891640130209     -0.16242021066971
  N   -1.82171706310375      2.78916398923481     -0.45151110059155
  C   -0.29132962563280      1.02761263181776      0.01012493215543
  C   0.70589215276203      2.00721494453123      0.18738987560237
  C   2.06216885191960      1.72880259456221      0.20961907718590
  C   2.48808907848045      0.42925177685134      0.01275322858809
  C   3.73874043424006     -0.22138373737911     -0.03433498084501
  C   5.00180891798168      0.37222989942597      0.06615906579598
  N   6.04273701244257      0.88407807060511      0.15134230540192
  C   3.42710652216880     -1.59105915051858     -0.19506537614311
  N   2.10629868578785     -1.83019657895162     -0.24303104320766
  C   1.51015639832921     -0.62068538902914     -0.12640091246484
  C   0.11913074200014     -0.36446283150735     -0.08074912445136
  C   -0.68556349358283     -1.51152655494238     -0.07329100136129
  H   -4.03059771913053     -0.96484947405305      0.26921685751368
  H   -2.74761224725309      3.16720945414010     -0.55950388377976
  H   -1.06169232242978      3.35367390300820     -0.77861058798884
  H   0.41674823947767      3.02655536682620      0.39202700117191
  H   2.77101517654851      2.52702642739925      0.38746112419035
  H   4.13990669281173     -2.39742641550135     -0.27559608896822
  H   -0.11293800491384     -2.42772982904393     -0.14213725209926
