29
Coordinates from ORCA-job ./opt_b97-3c_parallel
  N   3.38775373354019      3.04465293366846     -0.30141136135868
  C   2.71135179863134      2.10160564597345     -0.22923281172983
  C   1.95245196803469      0.90893745777260     -0.13141742645329
  C   0.58240481349957      1.05795155536261     -0.01735326552999
  C   -0.49236799240403      0.16066248207068      0.02423284233397
  C   -0.39883914843600     -1.28292378273629     -0.08731337814114
  C   -1.57753073740916     -2.01563626497475     -0.29177719722212
  C   -2.84089646574182     -1.43568780729558     -0.31792967373312
  C   -2.99223044491096     -0.08674401744321     -0.09108041864352
  C   -4.11297669915065      0.75612729854839     -0.02340904982397
  C   -3.64275916384501      2.05013249336166      0.20153650087917
  C   -2.23455803912285      2.05162383202529      0.26655561503356
  C   -1.78958238323505      0.73891769519593      0.09169270066900
  C   0.82324032085379     -2.01557312950895      0.09508075618231
  N   0.69505593968100     -3.37402646464167      0.27689932008015
  C   2.14184556749585     -1.56668531975998      0.05593762990990
  C   2.69584513387321     -0.30679289395446     -0.11895036206256
  N   4.04722224673830     -0.22124464999686     -0.27352074215182
  H   0.27460861013542      2.09355944991155     -0.00757232484179
  H   -1.51482376897017     -3.07035257367994     -0.51143874392956
  H   -3.70402921908082     -2.06167907819238     -0.51093165976922
  H   -5.14311740339726      0.45245357806190     -0.12199562880701
  H   -4.26127501598280      2.92862059619906      0.31468185113212
  H   -1.63362158811889      2.92877560635736      0.44909117755724
  H   1.51737735669677     -3.86929788297001      0.57195493255126
  H   -0.14440515019631     -3.69415836076029      0.72563299559923
  H   2.87948708293115     -2.35584861586494      0.16315202069057
  H   4.50277938536696      0.66943288616930     -0.17379018565238
  H   4.61291161282721     -1.02669358339970     -0.08197533036702
