28
Coordinates from ORCA-job ./opt_b97-3c_parallel
  N   -5.59597539548524     -1.16172220798609     -0.29834009884857
  C   -4.47707794031758     -0.85258142007820     -0.21811400027286
  C   -3.15857351672168     -0.39069465678491     -0.12098765487701
  C   -1.97990052818740     -1.13947133438250     -0.11489979401293
  C   -0.88889860943241     -0.25250622525531     -0.02533450343722
  C   -1.41217801850337      1.08789308882854      0.04123668535772
  C   -0.52538609414929      2.12949515336107      0.22083178332282
  N   0.78767470349432      1.95372197174009      0.24107430322766
  C   1.32042232273870      0.71980906729298      0.10450712786062
  C   2.72505074439026      0.71083048395010     -0.03627008213870
  C   3.37764937135033      1.97175191954258     -0.02896592862778
  N   4.01369187913314      2.94388586612366     -0.03627694604048
  C   3.58359130597940     -0.39170621044974     -0.23776294342679
  C   3.31806429435337     -1.72382239613789     -0.23279814829420
  C   2.05604379179495     -2.33133781809573      0.04686822927471
  N   2.06912396037159     -3.68406869833127      0.19662620241760
  N   0.86704339447936     -1.78445389793739      0.13473285259957
  C   0.48663245691627     -0.49691587014690      0.05357679129213
  C   -2.82368858799146      1.00343545081956     -0.02115586823014
  N   -3.72520091971506      1.99972343256056      0.04193097155642
  H   -1.92003736247923     -2.21197870332014     -0.17850953561304
  H   -0.85892136857355      3.15483835471494      0.35398356386772
  H   4.61680887186690     -0.12124720178833     -0.41325399025258
  H   4.15053416479760     -2.39213026467395     -0.41138490745891
  H   1.21507650780433     -4.11131430523684      0.50959806527277
  H   2.92643951650463     -4.16446640854836      0.39717145752610
  H   -4.69366206087919      1.79950106499302     -0.13901672322666
  H   -3.43714464683963      2.95348120072645     -0.07214570291799
