24
Coordinates from ORCA-job ./opt_b97-3c_parallel
  N   -1.95523030786100     -3.53881202103268      0.00096064649459
  C   -2.12094804803878     -2.38563034550308      0.00143983492199
  C   -2.28042815315069     -0.99770737712813      0.00202394436018
  C   -3.49941890294310     -0.28605385258300      0.00330836602102
  N   -3.35136019448878      1.05111544467714      0.00360222839866
  C   -2.02299925648116      1.25910809858437      0.00250678989829
  N   -1.44266635099275      2.46341850736750      0.00238226087185
  C   -0.12468471672807      2.47782346872053      0.00123227479888
  C   0.72230464384649      1.33874352098366      0.00013241152292
  C   2.09846133086017      1.61780945766644     -0.00099513692364
  N   3.19303909483972      0.88813717903102     -0.00223860130122
  C   3.25194679961717     -0.44999062397350     -0.00270812748779
  N   4.50833552132219     -0.92689539012878     -0.00396304638119
  C   2.19705812309711     -1.40409168833122     -0.00198392823820
  C   0.85607404162230     -1.18282643407327     -0.00072746096537
  C   0.11759455153499      0.02792199254320      0.00025807630330
  C   -1.27474361110622      0.00169626814799      0.00145528553138
  H   -4.48188222179366     -0.73426687624435      0.00401985346415
  H   0.34086350991707      3.45793746729994      0.00112966957647
  H   2.32293807143449      2.68200526252946     -0.00084141837369
  H   5.26703973554153     -0.26806292823885     -0.00485971725416
  H   4.71233296999022     -1.90858739984203     -0.00501992239008
  H   2.50527765124869     -2.44302589338485     -0.00251459006896
  H   0.25276416221204     -2.08020684108749     -0.00043459917938
