33
Coordinates from ORCA-job ./opt_b97-3c_parallel
  N   5.13665876735716     -1.34291114511797     -0.49851081215562
  C   4.08419928285292     -0.86965547973299     -0.33754691764777
  C   2.81466607282706     -0.29738945752576     -0.13894026325876
  C   2.72090710455529      1.10467523186142     -0.38007141127716
  N   3.75620572298072      1.69514955053552     -1.01733450244956
  C   1.72829840987337      1.93782571550987      0.13809939931044
  C   0.50124078431783      1.58066374823485      0.65950966909138
  N   -0.12770018098004      2.43279273203190      1.48662254051602
  C   -0.22626379648111      0.36111190877582      0.31220967971430
  C   0.39196984492424     -0.92104614152614      0.31451348848145
  C   -0.42087331156009     -2.06847041224359      0.18776722379646
  C   -1.79385191689112     -1.99179235508109      0.03495301607870
  C   -2.55010855102037     -3.18381648091097     -0.09720602858654
  N   -3.17557844650054     -4.15601285684191     -0.19890863537779
  C   -2.41870709274236     -0.73985265825557     -0.05398142613130
  C   -3.74206400248529     -0.36865564644905     -0.31484243627596
  C   -3.77808592002738      1.01675513021294     -0.41791546987036
  C   -2.48916588289649      1.55646959124033     -0.19576651290539
  C   -2.15912618540214      2.89866816699182     -0.39377940846788
  N   -1.86063954549402      4.01715895469906     -0.53809935089185
  C   -1.60172312412286      0.45518973602952      0.05394871006352
  C   1.81802642343181     -1.14963929034185      0.38770308865980
  N   2.22250404379973     -2.35089506281502      0.84220436206466
  H   4.59462175128815      1.18582672281542     -1.23477389936787
  H   3.79822761390087      2.69413691447469     -1.08878492358094
  H   1.98804875748817      2.98743667052966      0.20973653510006
  H   -1.10133489400331      2.27866972860703      1.68425772889162
  H   0.15757551658160      3.39716417678032      1.51650212451423
  H   0.02874112073570     -3.04450369022676      0.10589784367185
  H   -4.57036687241057     -1.04397562362626     -0.45162994247755
  H   -4.64247600859022      1.61281473792270     -0.66475747874270
  H   3.19407978198426     -2.60752437155186      0.84325492765858
  H   1.58373094970907     -2.95909619750614      1.31581937175206
