33
Coordinates from ORCA-job ./opt_b97-3c_parallel
  N   -4.69290510537247      2.29704203968459     -0.13864423554494
  C   -3.66700881705019      1.74725451996057     -0.09030383299295
  C   -2.42427369089747      1.08840605255946     -0.03151779018764
  C   -2.43513538683084     -0.28202040441721     -0.40217489173697
  N   -3.59094252044227     -0.75366531688940     -0.90533162388256
  C   -1.36852083045072     -1.21384411100693     -0.24950304768608
  C   -1.70212693319877     -2.51302338039916     -0.69839117564503
  N   -2.07366751276516     -3.51062607841145     -1.16825504533053
  C   -0.02186305891471     -1.00928382400513      0.14461835967010
  C   0.75663366796986     -2.14389901557969      0.52446454753945
  C   0.14654652815570     -3.29029075596459      1.08521238771227
  N   -0.28200910801977     -4.22333013233976      1.62837562856248
  C   2.15111546743635     -2.14956580911748      0.41731840617730
  C   2.77627515326333     -1.01745066991330     -0.03534093613793
  C   4.11098081642863     -0.74477404600958     -0.43056119329872
  N   4.26163407563992      0.49393255660383     -0.87505084922692
  C   3.03994536563045      1.10856714340073     -0.74207188204891
  N   2.93021499143180      2.35136056935206     -1.20447183776041
  C   2.04590261961470      0.20125990723810     -0.21321837256448
  C   0.66946319359581      0.27247297230964      0.05931365115890
  C   0.04471209590525      1.51433944744486      0.37793971142522
  C   0.89668377235800      2.51789571204052      0.86175807630674
  N   1.55682823249000      3.39669136565559      1.25435030572009
  C   -1.33407692893206      1.87930136319051      0.39906041597376
  N   -1.62631655840150      3.12711040832554      0.81767586164190
  H   -4.40024355325945     -0.16441056339920     -0.98525088287446
  H   -3.70076562781588     -1.73149388547605     -1.11204029812058
  H   2.69878695857407     -3.04824776193056      0.66228258292646
  H   4.94331320224730     -1.43361296282266     -0.41309004615694
  H   2.21529441990607      2.97626773921010     -0.87412259610931
  H   3.78974344627947      2.77440679799983     -1.51651330574306
  H   -2.57794011815455      3.44188786950686      0.87950588327548
  H   -0.90732617692194      3.74922966949816      1.14080742595810
