29
Coordinates from ORCA-job ./opt_b97-3c_parallel
  N   -0.70788237387063      4.13590395570288     -0.13349654005251
  C   -0.58856533567604      2.97937403149422     -0.06879804179489
  C   -0.54951593591140      1.57447903622309     -0.00272590457786
  C   -1.80801933969309      0.90510940731294     -0.02184843354427
  N   -2.96528965941904      1.61080806087130     -0.08571641231364
  C   -1.79809618329590     -0.47979320230638      0.05458714772182
  C   -2.81568913976407     -1.45322367087788      0.05934447845059
  N   -4.18076662600086     -1.24319762135377      0.09967622406045
  N   -2.29997986505246     -2.70179128650131     -0.01377817483556
  C   -0.96027019390342     -2.56173678678272     -0.04102592119308
  C   -0.56216084090697     -1.21222699655387      0.01504684473607
  C   0.69922291957962     -0.57684681745085      0.02930501412378
  C   1.85244299565381     -1.35759289652990      0.02417922131836
  C   3.21807868868596     -1.04293393817952      0.02389919347433
  N   4.09408168719977     -2.09168223105423      0.02368523663481
  N   3.83926151230609      0.14537365433762      0.06603128149531
  C   3.20220508659689      1.30096062359112      0.10095800860697
  C   1.86224493926983      1.65894470050161      0.08403683074334
  C   0.69204355114613      0.89023753705153      0.04277110095529
  H   -2.90925504925512      2.59008583690882     -0.31487742357590
  H   -3.77096903380953      1.13040905653913     -0.45144079517941
  H   -4.68163464710886     -2.11739170169455      0.16805191651277
  H   -4.48161912183350     -0.60278898511437      0.82012106027856
  H   -0.33512070801131     -3.44033994879506     -0.09409444588028
  H   1.65676985974182     -2.42280055573245      0.02302966916545
  H   5.05495945201309     -1.85462203266880     -0.14898321778752
  H   3.79053706982239     -3.00098181709286     -0.27144241726000
  H   3.88119224112519      2.14876103534171      0.14207974079611
  H   1.71044967207129      2.73018187751337      0.10661652962135
