28
Coordinates from ORCA-job ./opt_b97-3c_parallel
  N   4.17042415271160     -2.89076790458568     -0.27087656051674
  C   3.41489201188947     -2.00933524814907     -0.21235844763776
  C   2.55319341270035     -0.89146368052697     -0.10882173769183
  C   1.20643790678943     -1.09405724018966     -0.28276206203108
  C   0.10907383773843     -0.22022634755407     -0.13555005681668
  C   0.19422793494269      1.20762650288139     -0.01014010875319
  C   -0.98509332693586      1.94020567421554      0.20553808805123
  N   -2.21285701832861      1.42931205307069      0.27499215214621
  C   -2.33028349242085      0.12314722304829      0.09809529413953
  C   -3.50196457063202     -0.66688847789009      0.08919735497739
  C   -4.81722258693129     -0.21501452822072      0.25070840715562
  N   -5.91464660958656      0.14676658295594      0.38187758060765
  C   -3.08890484693000     -2.00154514574302     -0.10829742261275
  C   -1.69591654635553     -2.07389233204173     -0.22247724517034
  C   -1.18367237912443     -0.77819744437808     -0.10935560527230
  C   1.42257395651454      1.93083890918389     -0.20623031255175
  N   1.33669960950221      3.19763712571018     -0.65475099630598
  N   2.66472613468311      1.56369616132684      0.08590274615476
  C   3.17054220957565      0.36563848182737      0.25811926920141
  N   4.41365826451031      0.32010926262123      0.76757192847430
  H   0.93589539242861     -2.11772866428244     -0.50165923584856
  H   -0.92280855438569      3.00598676020379      0.38882365703123
  H   -3.76282237098111     -2.84202496513565     -0.16159718085895
  H   -1.14323034120352     -2.98835797063261     -0.36736766518517
  H   0.49741692871769      3.54910951799975     -1.07414837275777
  H   2.18520432173601      3.72586223044649     -0.75195702588891
  H   4.89673170314158      1.18486893934019      0.93024947297292
  H   4.91838996773369     -0.54346308780178      0.85717030438741
