27
Coordinates from ORCA-job ./opt_b97-3c_parallel
  N   5.40387276689758      1.68535943904523      0.26224368331447
  C   4.34617851038240      1.20730739681828      0.20089097662541
  C   3.07541544144433      0.61076310540665      0.12687387941827
  C   2.83732759074044     -0.80279449546455      0.11534573868965
  C   1.47022552577677     -0.99629077474053      0.03858761149373
  C   0.67622473503395     -2.16651887292666     -0.04892624741582
  N   1.24927190013430     -3.39614733782339     -0.01226663691073
  C   -0.70471517233450     -2.02627365984777     -0.11700083474913
  C   -1.35938356921347     -0.78565856599503     -0.10389777682940
  C   -2.74534819851476     -0.78670774434468     -0.03905964567965
  C   -3.65542046635101      0.28351330415957      0.02640594565160
  N   -4.96920494343344     -0.03200022152618      0.20582297472542
  N   -3.44200480860512      1.59329425255538     -0.12808560002741
  C   -2.24956912152039      2.14686657644665     -0.29448220121936
  N   -1.00418808118211      1.71572864537052     -0.23567289700277
  C   -0.54769637227095      0.46424666135459     -0.10556337508386
  C   0.83396632767247      0.29828421193926     -0.00006540929836
  C   1.85614944664259      1.27704098724476      0.04820340067084
  H   3.61659104573289     -1.54703213276410      0.16527963762959
  H   2.23537156343415     -3.47488955867770     -0.17875502157192
  H   0.70336302153755     -4.19522559305216     -0.27905485923913
  H   -1.31521256350797     -2.92074337963207     -0.14142986268999
  H   -3.20010939693984     -1.77107415528574      0.00131525136144
  H   -5.23227096993512     -0.92435780273861      0.58023702823694
  H   -5.58881624775037      0.74010376292521      0.37720435327723
  H   -2.31440797536359      3.21478175334567     -0.48567369593727
  H   1.70737570609325      2.34200878920745      0.03068524176019
