22
Coordinates from ORCA-job ./opt_b97-3c_parallel
  N   3.86732573077296      2.28748680686675      0.09436499308627
  C   2.86534300176116      1.70356275768937      0.06515236897325
  C   1.65198966057661      0.96953498145520      0.03248332518410
  C   0.44132658804783      1.63616571437042     -0.06771409322220
  C   -0.79375492747044      0.95656134550515     -0.06553422159705
  C   -1.95064016292474      1.74106672710149     -0.16254261286914
  N   -3.21771184664118      1.44975767618067      0.10712216899699
  C   -3.70135664538548      0.24193413621599      0.29991006839233
  N   -3.24267152549724     -0.94923479763359     -0.09649849795074
  C   -1.99162547556680     -1.25658338843316     -0.30379894850301
  C   -0.81089596902077     -0.50088075320824     -0.04397042534983
  C   0.40644528425100     -1.16162490997952      0.01617135109437
  N   0.62005856513638     -2.50554153329397      0.01911509863018
  C   1.95320679705457     -2.64121949654302      0.08016905893220
  C   2.65385189574777     -1.41059171007450      0.12045937536636
  C   1.67110957677120     -0.43745637686112      0.08007392721826
  H   0.43844528826039      2.71462108095304     -0.12320326984043
  H   -1.78849553342468      2.78794565998920     -0.40245861935492
  H   -4.67834131393138      0.20832047164521      0.77141601835445
  H   -1.81516607737373     -2.25665845197612     -0.68554282886398
  H   2.39704246721576     -3.62655107290321      0.09319530712417
  H   3.72087208934082     -1.26803842996604      0.16094712859838
