26
Coordinates from ORCA-job ./opt_b97-3c_parallel
  N   5.11763810355872      1.81644424364322      0.01095785846541
  C   4.08119491255479      1.29418476829544      0.00787521476780
  C   2.80241514965533      0.66930662640458      0.00428349016686
  C   2.79721230746665     -0.71630555129992      0.00177300969583
  C   1.69520460669082     -1.58019806702910     -0.00192370010057
  C   1.99489646428357     -2.97159896547440     -0.00365132230140
  N   2.24312502411704     -4.10525067055175     -0.00498861917085
  C   0.34011738175162     -1.24186602309070     -0.00407334114078
  C   -0.30604044284828     -0.01274265918231     -0.00252651203286
  C   0.33724959478723      1.32081675337239      0.00128022447330
  C   -0.48396306352636      2.47670261089227      0.00211995333978
  C   -1.85856621607888      2.43714837407445      0.00028014921081
  C   -2.49714628798295      1.19488244604741     -0.00354426214821
  N   -3.79473372464236      0.88753000109351     -0.00396985255384
  C   -3.76958102246955     -0.48334316050815     -0.00528068921907
  N   -4.90501870946519     -1.19112531132079     -0.02995819489508
  N   -2.55246627841373     -1.07738737214886     -0.00483015664860
  C   -1.71184212619829     -0.02828686086468     -0.00438869218208
  C   1.69734112706309      1.55007480291104      0.00387221289983
  H   3.76813934522851     -1.19264528290422      0.00273103467605
  H   -0.34276508340094     -2.08264853323736     -0.00739655308342
  H   0.01069726614737      3.43803962982011      0.00469745462935
  H   -2.43913953427952      3.34940194351253      0.00130129758195
  H   -5.77820410870619     -0.71486289032978      0.09658247019858
  H   -4.86636418489603     -2.18545847460318      0.09364151747769
  H   1.97841478020354      2.59557422827825      0.00613674749350
