33
Coordinates from ORCA-job ./opt_b97-3c_parallel
  N   5.68446553892671     -1.10288590998623     -1.19273206440691
  C   4.59925805907992     -0.82103667111852     -0.88207977223807
  C   3.32461270436262     -0.38016794935430     -0.50471151020197
  C   2.14927463036696     -1.11751665207052     -0.41337810192518
  C   1.08964946784238     -0.23563639975535     -0.06993180264077
  C   1.66375616893011      1.07722789935849      0.07386916061409
  C   0.83350390328982      2.11998355423739      0.49461344412721
  N   1.32128554437648      3.34007780474453      0.86607890939950
  N   -0.48659690298112      1.98261520605309      0.49737075705633
  C   -1.06854621264279      0.81194382090051      0.19489434673166
  C   -2.44499030409304      0.91541686400659     -0.07243694512462
  C   -2.98079002959055      2.22353633448264     -0.09471992277951
  N   -3.54227847401056      3.24039000959513     -0.16132866483889
  C   -3.35497809884882     -0.12867947484672     -0.44556406008803
  N   -4.49791880238861      0.24001984739384     -1.06096390718914
  N   -3.25851122169436     -1.42444267013271     -0.22072390040112
  C   -2.22482614378344     -2.09851629133508      0.27017403744923
  N   -2.56096504204460     -3.33120954548432      0.70935164011923
  C   -0.84639778806764     -1.72193930489417      0.32007107818935
  C   0.01434701654695     -2.78056343561832      0.67044502282951
  N   0.62840782651662     -3.71779342311264      0.98888853545188
  C   -0.28556728678617     -0.43599714485030      0.10844240879338
  C   3.03192566428127      0.99815481865867     -0.20506845980804
  N   3.95179304373101      2.00007655492522     -0.18881712083728
  H   2.07856371731469     -2.16843993764826     -0.62357249892915
  H   0.62729627306711      3.95385645417920      1.26331969975560
  H   2.21072681510742      3.35178039045312      1.33749051141968
  H   -4.74523059771579      1.20795123865177     -1.16483985857982
  H   -5.21385764565069     -0.45587518624304     -1.16217546803085
  H   -1.86587713676013     -4.00745358908528      0.97037267482995
  H   -3.49520660093589     -3.64439926327664      0.52110581727899
  H   4.85300730468059      1.78186288804115     -0.58413446339157
  H   3.62372499157209      2.92291474132972     -0.42314756633479
