29
Coordinates from ORCA-job ./opt_b97-3c_parallel
  N   -5.42448006004865      1.15341174802241      0.01489838978850
  C   -4.29017832007748      0.88534585804386      0.00961596043778
  C   -2.93930855949581      0.48895151083170      0.00414081930902
  C   -1.96737751834563      1.50882140351234     -0.00050384296252
  C   -0.60480246655534      1.46174320898349     -0.00470970378968
  C   0.31038647585868      0.37706272713959     -0.00467064831980
  C   -0.10342362733280     -1.03104209076920     -0.00469859888265
  C   0.90754091184701     -2.02817488489318     -0.00761358461966
  C   2.24977097652125     -1.73514856914452     -0.00746072923075
  C   2.66760914401759     -0.41200435811199     -0.00464234237298
  C   3.94064188815415      0.18983875375185      0.00175001691780
  N   5.15253097605122     -0.44259861643472     -0.05042761497490
  C   3.75409763754353      1.60461212491146     -0.00596452091901
  C   2.40474580147815      1.87754111407717     -0.00825285462026
  C   1.68028790947513      0.64214758699528     -0.00574144067663
  C   -1.41508956494319     -1.50530772102083     -0.00246452099381
  C   -2.68141982919110     -0.90199346691942      0.00218815787941
  N   -3.74937437717202     -1.74353943763415      0.00452760851018
  H   -2.38698605407050      2.50706357112141     -0.00049246976013
  H   -0.13694881205227      2.43622168300718     -0.00824196683777
  H   0.59487873882440     -3.06335763640789     -0.01146628894368
  H   2.96461330655144     -2.55078771029194     -0.01717115969177
  H   5.94961795560644      0.08723333240143      0.25742532887134
  H   5.17980417780450     -1.40204957849851      0.24877325421470
  H   4.55032082749206      2.33379044129003     -0.01194095712778
  H   1.98196177775996      2.86915747414713     -0.00592413719100
  H   -1.46987815311860     -2.58910117645109     -0.00397797926320
  H   -4.68900454896928     -1.39091209250487      0.00861732186400
  H   -3.62106988321290     -2.73605321345393      0.00505128028523
