26
Coordinates from ORCA-job ./opt_b97-3c_parallel
  N   4.10168640875675      1.92696850079329     -0.24352784125318
  C   3.34926935318698      1.05115425708991     -0.11569965611407
  C   2.40230749140580      0.00341717689979     -0.00369385407113
  C   2.87291807191172     -1.19510389834395      0.51842618557771
  N   2.34902935381500     -2.40977829813291      0.45992159908978
  C   1.12590402540139     -2.70976764574253      0.08559295520598
  C   -0.04013654288610     -1.93184539917881     -0.05837498422331
  C   -1.24075857654759     -2.68027208329343     -0.13009004876943
  C   -2.47844638916491     -2.09155998522530     -0.12879308452218
  C   -2.56253157176934     -0.70615137261313     -0.02213157493065
  N   -3.68440842654479      0.03468199434936      0.06766517188855
  C   -3.26691314539224      1.30583839413968      0.18267016336460
  C   -1.86535920489871      1.44537161839213      0.13712706753319
  C   -1.17954190700451      2.63988609349561      0.37229238670219
  N   -0.59704181878595      3.63408681361964      0.54415326607766
  C   -1.35838160858278      0.11099559697727     -0.00230754292705
  C   -0.09626063761012     -0.48683647566932     -0.10161285188001
  C   1.07155112918305      0.29704396274237     -0.43915015987432
  N   0.89182413674588      1.40835738178775     -1.14156677335553
  H   3.86415168543483     -1.15867633902371      0.95739881351129
  H   0.97259250403621     -3.77736716885465     -0.04621996877356
  H   -1.16181777138763     -3.75803995843606     -0.14404847372679
  H   -3.38448328791928     -2.67925105735172     -0.17502368914135
  H   -3.96847929841057      2.11461741695365      0.32214780374753
  H   -0.03099286777397      1.70267479058966     -1.40759774591424
  H   1.63179612130088      2.08189516583540     -1.26035052542168
