28
Coordinates from ORCA-job ./opt_b97-3c_parallel
  N   -5.91053707820253     -0.48888213617028      0.05584494692555
  C   -4.77110042756231     -0.25290702215480      0.03896427031429
  C   -3.38615724796182      0.02443127833197      0.01904334141594
  C   -2.98075331943405      1.37062310690614      0.07932713924778
  C   -1.72312539201480      1.90374737467290      0.06210982554351
  C   -0.45648056556545      1.26004528882659     -0.00302116487393
  N   0.58546848693725      2.10116058645294     -0.03563107289060
  C   1.85719520184419      1.66166888646953     -0.04743004444780
  N   2.82338424324204      2.63402924580192     -0.11817533691088
  C   2.14154155058166      0.31020958391810      0.04127420991974
  C   3.29638213376777     -0.51237071063950      0.12081273151329
  N   4.58903349655744     -0.10244583240578      0.20112053468094
  N   2.99203131103785     -1.82947996653882      0.08506212240148
  C   1.64719479231164     -1.90170333130573      0.00615532613237
  N   0.96575353600577     -3.04030513657489     -0.04500106428313
  C   1.04018766696207     -0.59726096745767     -0.00215114049344
  C   -0.27712501325404     -0.19375418701291     -0.03496208754302
  N   -1.22158162183547     -1.19113493779295     -0.09609667299456
  C   -2.52314175810350     -1.08804722486785     -0.07521429977198
  H   -3.78878622789589      2.08911691908671      0.14211698067233
  H   -1.64890185789535      2.98115180750585      0.10581993390335
  H   2.44929412122581      3.54262113196073     -0.34308180818370
  H   3.65020942213816      2.39980623181809     -0.64265541131882
  H   5.24410269131409     -0.83123380926330      0.43471166034313
  H   4.75805379508947      0.76883482317954      0.67572274097279
  H   1.43980195901255     -3.92536898840137     -0.03916512280230
  H   -0.04298182765955     -2.95892804287967     -0.09542331784220
  H   -3.03347881264305     -2.04609118136552     -0.13779409933011
