32
Coordinates from ORCA-job ./opt_b97-3c_parallel
  N   -3.00114246784897      3.90993048469665      0.46952224258363
  C   -2.50142068194699      2.87011265528229      0.32631324418130
  C   -1.96453107593843      1.56949382153084      0.15815737149288
  C   -0.59974576089329      1.48701809334076     -0.01440840534345
  C   0.28043398554612      0.40670204418885     -0.08359806081137
  C   -0.04950942826179     -1.00515229520007     -0.02139341239784
  C   0.99419683244460     -1.92466418226893      0.15838325328861
  C   2.34196358922914     -1.57232387047579      0.19773783675683
  C   3.32274618511804     -2.56547036241617      0.42666417413377
  N   4.14171112692489     -3.36941218813675      0.60619746491020
  C   2.71226348319580     -0.23189983181322      0.01597552919219
  C   3.90070152052820      0.46974104877016     -0.01814896909609
  C   3.50990998283395      1.82611585682241     -0.16717864949770
  N   4.32141339244106      2.89514304243474     -0.28874442651904
  N   2.16126456399252      1.99690776977944     -0.22312619321307
  C   1.64894339297738      0.76226231625493     -0.12164634475808
  C   -1.36312891340287     -1.52919338352239     -0.22784558674971
  N   -1.45159694613919     -2.84584801820147     -0.52998308312514
  C   -2.61962833218494     -0.85724259836288     -0.11134775350048
  C   -3.75965636881971     -1.66957312955569     -0.28502442454811
  N   -4.70894648627288     -2.33012416127398     -0.42346798227087
  C   -2.91476277464358      0.49907549224413      0.15931990030391
  N   -4.19828160396307      0.83672699251986      0.36623998161989
  H   -0.08977146431840      2.44168362978483     -0.04166675821823
  H   0.76771966846191     -2.96168124080717      0.34897032611408
  H   4.90180204726580      0.08040884541613      0.06209286402201
  H   5.29150952833567      2.81540908188357     -0.04804337010940
  H   3.90307385593730      3.80552456441962     -0.21502014981565
  H   -2.34553371586575     -3.27681629932641     -0.68771656173236
  H   -0.65762393751280     -3.32081532028429     -0.91298960830133
  H   -4.46370873016813      1.80205521961836      0.46018804814218
  H   -4.93253943665202      0.15162017675833      0.32984728726609
