26
Coordinates from ORCA-job ./opt_b97-3c_parallel
  N   -5.44442279923517     -0.71646511815079     -0.66393746580241
  C   -4.38699578175844     -0.27962373488320     -0.44988466211116
  C   -3.08083471853380      0.16174379563905     -0.20941736547526
  C   -2.63621840743419      1.47116522820777      0.03447364171167
  C   -1.24190742388796      1.44240548314992      0.16096305813509
  C   -0.30204892636057      2.41313108701241      0.47003446347986
  N   1.00479424848870      2.18486859623423      0.47890349700342
  C   1.46784935720994      0.94208347400831      0.23009777188271
  N   2.75839937540835      0.87739448610661     -0.05152077177752
  C   3.54569380595769     -0.18457756356575     -0.18367601337558
  N   4.65975994069180      0.02420649146063     -0.91598326118849
  N   3.47689052238067     -1.41205962330436      0.37628202023133
  C   2.31969380855664     -1.95301974922776      0.70349758064858
  C   1.01244520359003     -1.51534478280203      0.52471620947804
  C   0.55447315517672     -0.22924729613560      0.20562566539803
  C   -0.79273242964832      0.08069053424191      0.01992223435445
  C   -1.95016401286876     -0.71297406933675     -0.21369380669470
  N   -2.01949827600824     -2.04968092461894     -0.40235132860335
  H   -3.27175545011189      2.33879406731805      0.10348059243994
  H   -0.60956677136440      3.42794295867631      0.70272344194700
  H   4.89239998627415      0.96604324446300     -1.17307149544048
  H   5.38325689119840     -0.67059346881367     -0.88666983447880
  H   2.41784415963905     -2.93835308062622      1.15231034935316
  H   0.25765210092091     -2.24097924329251      0.79961784894106
  H   -1.19221615360614     -2.53161972236170     -0.70954574876425
  H   -2.88562135237517     -2.42272227229913     -0.75707451019261
