26
Coordinates from ORCA-job ./opt_b97-3c_parallel
  N   3.10363752995771     -2.76681802581234      0.02611556541738
  C   2.77254506583313     -1.64889550646819      0.03782864382943
  C   2.35741801735246     -0.31596095710894      0.04592231086487
  C   3.22141565811661      0.79148619357706      0.13061430280736
  C   2.48262414306643      1.97905581091159      0.13047477483966
  C   1.13094374650883      1.63705201894096      0.05007860330072
  N   0.08150519201600      2.46170401565771     -0.05973574392122
  C   -1.12530843701048      1.93579855611949     -0.11741562323076
  N   -2.17959285662849      2.83711607939510     -0.21295174642722
  C   -1.39597586097595      0.52139398465830     -0.01190751501311
  C   -2.71144808703069      0.14579376688126      0.21754175115833
  C   -3.33449346523811     -1.10230429557436      0.28649664421392
  C   -2.78650286485157     -2.34351337664551      0.06755176900642
  C   -1.44342669119862     -2.64057188675137     -0.18573859466337
  C   -0.36068802601395     -1.79866397492047     -0.21137325507279
  C   -0.24592487997193     -0.39404878463820     -0.06330168950816
  C   1.01451918524976      0.18868366252201      0.00409260785539
  H   4.29533992051570      0.71291421497536      0.18810977178770
  H   2.87369826236783      2.98178493775416      0.17443544925296
  H   -1.82633662139218      3.77484984486261     -0.32727699228913
  H   -2.87011022870359      2.62133178188634     -0.91430304304672
  H   -3.38155161998416      0.97559848546412      0.40100799125564
  H   -4.39331374596077     -1.07608648523090      0.51202319090291
  H   -3.46320093958833     -3.18828457104677      0.11083172929343
  H   -1.21457370789442     -3.68752164144918     -0.34137684924324
  H   0.58297589925863     -2.30157089125954     -0.36428521847051
