27
Coordinates from ORCA-job ./opt_b97-3c_parallel
  N   -4.74243829146943      2.14952947388436      0.00009438555663
  C   -3.80896666945361      1.45731299592264      0.00027628142282
  C   -2.72838625839540      0.53916227162894      0.00033583596426
  C   -1.45346738061305      1.09224483530129      0.00034863026587
  C   -0.16326178049419      0.55643657814880      0.00036570331078
  C   0.88197171330752      1.50455594352318      0.00034317415880
  C   2.22309475035665      1.15035476982208      0.00033349891284
  C   3.21650679839472      2.16260950904672      0.00032533696279
  N   3.99681302329725      3.02031913740801      0.00052236704005
  C   2.57027551957831     -0.20810334117949      0.00032803159135
  N   3.78741925170068     -0.75064298847965      0.00028987332013
  C   3.56177982627209     -2.09913919062471      0.00029758659109
  C   2.21451243806235     -2.44270650824798      0.00035400712740
  C   1.51286073025911     -1.22108162396293      0.00036569297273
  C   0.15806401436998     -0.86294577258993      0.00038249194777
  C   -0.80513753181257     -1.89250128707302      0.00041058550097
  C   -2.17178757736172     -1.90286336280843      0.00040754467749
  C   -3.09231706428621     -0.83673686968857      0.00036843510019
  N   -4.40156659727675     -1.15101254777806      0.00035883804515
  H   -1.47038712351436      2.17493920854014      0.00032755442847
  H   0.62641405927174      2.55376142733380      0.00033297429033
  H   4.39954144431216     -2.78126984231539      0.00027101576757
  H   1.81635777440155     -3.44412942330186      0.00037619309569
  H   -0.37108327593694     -2.88373665692201      0.00043182722409
  H   -2.62339369907376     -2.88809735630166      0.00042858852371
  H   -5.11325140482174     -0.44081732468322      0.00028603822236
  H   -4.70010114767438     -2.10798536900307      0.00034649737868
