27
Coordinates from ORCA-job ./opt_b97-3c_parallel
  N   -4.42646497504253     -0.76264177837725      0.14653741241872
  C   -3.17367633254701     -0.23590251285241      0.03600928897810
  C   -2.10511184583674     -1.13760835682990      0.00481967334572
  C   -0.73012354379974     -0.90289441263762     -0.03393752866971
  N   0.03428775469691     -2.00746154519781     -0.04751276147337
  C   1.37334451718513     -1.92838358158000     -0.04764388807265
  N   2.02480487972541     -3.12585712682126     -0.12637311742274
  C   2.04218754087806     -0.70467428886038     -0.01430857978828
  C   3.38659057883855     -0.30134946082582     -0.04562120680476
  C   3.45367588774777      1.09766544874028     -0.03689237773575
  C   2.14398644119631      1.60669066667301     -0.00131571910304
  N   1.72593132985149      2.88308195760534      0.04222393603057
  C   1.23802635142851      0.48363559053984      0.01244647742026
  C   -0.13907007835273      0.45363253764436     -0.02368596562551
  N   -0.79622219044262      1.64557256641867     -0.05637181166715
  C   -2.09695170857002      1.86059090405270     -0.06540604717143
  N   -3.18419999606245      1.10729526389997     -0.01055392083593
  H   -5.18713285388626     -0.12879472749203     -0.02211083671764
  H   -4.58287996319024     -1.73476764903040     -0.04422861655448
  H   -2.35898581204097     -2.19002045635111      0.03059973945849
  H   2.97268207087810     -3.16719343859570      0.20157776349513
  H   1.45637065252911     -3.92740233006208      0.08822316648936
  H   4.24779552501076     -0.95199218465262     -0.09078952750325
  H   4.35661378173409      1.68775524677986     -0.05039910626538
  H   0.72408423427805      3.01274283847512     -0.05811122025246
  H   2.35914368355656      3.63699151475578     -0.15164476790720
  H   -2.33944783986335      2.92006530818147     -0.12331332796540
