31
Coordinates from ORCA-job ./opt_b97-3c_parallel
  N   -4.34610827177284     -1.80964701469673     -0.08458661212660
  C   -3.20689391486891     -1.03751339143054     -0.03049843587229
  C   -1.98845670035084     -1.71554753270290     -0.06980033640246
  C   -0.68267479200369     -1.20982966079635     -0.04636104434253
  C   0.38221970038266     -2.13252624529891     -0.05270470647031
  C   1.72971436451385     -1.78571066759045     -0.01059553457588
  N   2.73256999448059     -2.75295797431263     -0.01898545487030
  C   2.03918062633271     -0.42859086971196      0.00749439715577
  C   3.22922646784181      0.33434927804846     -0.00731345268200
  N   4.50917332810909     -0.13662460331114     -0.07367033239492
  N   2.99666664964139      1.66882807581475      0.07599031989838
  C   1.65634538675184      1.79879963440994      0.10944610004854
  N   1.02745750473282      2.97004790872419      0.17707512388543
  C   0.98172517062444      0.52765372781642      0.04647874292320
  C   -0.36998873981292      0.22174364788976      0.01648603941523
  N   -1.23647270297011      1.26763471744951      0.03429506458871
  C   -2.56337654003574      1.23623083559867      0.01364561860688
  N   -3.13770292708116      2.48684845252363      0.05276857317904
  N   -3.48312546255886      0.26756737411534      0.00568074967150
  H   -5.18369254646325     -1.32489362397153      0.18811480877061
  H   -4.28198892763788     -2.76301878935240      0.22416696865147
  H   -2.06451625362247     -2.79550800698304     -0.13026166696567
  H   0.12401011173989     -3.18554615105979     -0.06360804911175
  H   3.49395441263242     -2.54347546142688      0.60911829992624
  H   2.39207586104735     -3.68657595574750      0.14905111171671
  H   4.63478016320375     -0.97751066718331     -0.61411308024303
  H   5.18909197961398      0.57792742191530     -0.28061202099157
  H   0.01625274502958      2.91843486470308      0.23140437087326
  H   1.54430979822592      3.82224843175860      0.29580783195643
  H   -4.10277170387962      2.51635482631892     -0.22420653786201
  H   -2.56253047934577      3.24460999738947     -0.26745767515607
