31
Coordinates from ORCA-job ./opt_b97-3c_parallel
  N   -5.74299272696750     -0.69538256877142      0.48158062034228
  C   -4.62745020175496     -0.41017751562572      0.30024347862457
  C   -3.29095060227570     -0.07118846216833      0.09454763764852
  C   -2.78667228247374      1.24205680561266     -0.06618645179635
  N   -3.54187964726767      2.35834793253382     -0.15174052281299
  C   -1.37361101710859      1.14750575633793     -0.15685348759198
  C   -0.37635728709030      2.08049573871860     -0.29310907697978
  N   0.91266153752110      1.75846641375730     -0.26189729717905
  C   1.30736493762815      0.47249934242338     -0.14854169317737
  C   2.71398419222589      0.35610516061756      0.03437930927477
  C   3.39477784582586      1.59383581274738      0.14950340169375
  N   4.11593182738988      2.49969033051428      0.26997268420897
  C   3.56149851982697     -0.78691739798970      0.13595896453214
  N   4.86504690513935     -0.57045896589150      0.44836190730931
  C   3.18111236215003     -2.11724384174704     -0.07468567426317
  C   1.92194323492972     -2.60449293427118     -0.36212174888376
  C   0.69427255192903     -1.97932838653932     -0.40988704429378
  C   0.34679281978255     -0.62887374219062     -0.18766776328883
  C   -0.99799213210586     -0.24404471456423     -0.07779049785477
  C   -2.19806773381042     -0.98398283927494      0.10263336212192
  N   -2.34449508403144     -2.32261374038423      0.26575273406193
  H   -3.10620816713954      3.25245424479664     -0.01985099380663
  H   -4.50805909394507      2.30524387241229      0.12132823876843
  H   -0.58780694310489      3.13804237522048     -0.42215235504089
  H   5.23632282945212      0.36448572227375      0.44858553768747
  H   5.52275187095369     -1.31958670980071      0.34316377739315
  H   3.97838402205846     -2.84834504952545     -0.02370048389484
  H   1.89111775368359     -3.66836906764212     -0.57013654166567
  H   -0.12093597190657     -2.62015144452311     -0.71294614533327
  H   -1.55581513352114     -2.83181100410757      0.62837351377050
  H   -3.23522622409313     -2.63750860174880      0.61642978082537
