25
Coordinates from ORCA-job ./opt_b97-3c_parallel
  N   5.07389087647418      1.11996402876740      0.23524492185464
  C   4.09150067148917      0.50486076898416      0.13859732364379
  C   2.91967840953395     -0.25100838623873      0.01790558304156
  C   2.83525642942278     -1.64583775464640     -0.17592173908932
  C   1.49840282515589     -2.04624084190271     -0.24377277387398
  C   0.69064693112373     -0.90769611896942     -0.10357706171425
  C   1.59083118703933      0.23518262859903      0.07153892292652
  N   1.17387259574116      1.47611876036826      0.26894735017263
  C   -0.14080373793052      1.68015624548664      0.24524436815435
  C   -1.11960543165958      0.68662871580789      0.06470923971748
  C   -2.48491567708893      1.10464852557545     -0.08335959089552
  N   -2.72548379726239      2.35280261335970     -0.52679609330984
  N   -3.60314603536234      0.45725790724723      0.27117778844976
  C   -3.78011286572259     -0.83150512122665      0.38372847524473
  C   -2.91309706456788     -1.88548882503412      0.05245169465215
  C   -1.56614823558956     -1.80057469140236     -0.16815435770300
  C   -0.69684595154020     -0.68782160513545     -0.07234931461658
  H   3.68885205641430     -2.29963518010305     -0.25895159253104
  H   1.17359816121709     -3.06523809628828     -0.38123614131529
  H   -0.45069244095460      2.70082805630238      0.43325758865430
  H   -2.02027497438757      2.89348121101486     -0.99007243957027
  H   -3.68044832189230      2.66294595859834     -0.56281155238722
  H   -4.76457151020809     -1.11183546402233      0.74782234405896
  H   -3.35673437566520     -2.87283955313564      0.04032767237340
  H   -1.06726149987977     -2.74143670230638     -0.36058154413774
