32
Coordinates from ORCA-job ./opt_b97-3c_parallel
  N   5.70982958263974      1.07545043979741     -0.30752735085236
  C   4.59427348228858      0.74914503350627     -0.22037219451013
  C   3.26041239728792      0.35761971482154     -0.11702294426344
  C   2.79730097506668     -0.97927353141535      0.06031014660152
  N   3.60153921066519     -2.07545235885460      0.16173829811062
  C   1.39422795102231     -0.94997481579663      0.07304478324686
  C   0.41774185757420     -1.94062910271182      0.11958739978648
  N   0.72268930733253     -3.27885271889385      0.14979418501534
  N   -0.88032323370608     -1.64052742982733      0.14227544984654
  C   -1.31434452711323     -0.37211289131419      0.11654614294136
  C   -2.72566938031659     -0.26063059466201      0.03485301009391
  C   -3.42041410101144     -1.49114816805068     -0.03661235461801
  N   -4.11894430942300     -2.41904556671881     -0.11424116539436
  C   -3.55688135494686      0.90436702106212     -0.08897577321814
  N   -4.84772247050669      0.70811558589962     -0.43442397590584
  N   -3.26272401434767      2.18503374040849      0.12324039482804
  C   -2.05017725581467      2.65423652335931      0.38958216801355
  C   -0.79344522025670      2.09504203116740      0.35596235232376
  C   -0.38556042796437      0.76283479881876      0.11831810263692
  C   0.95984585747050      0.42188383403075     -0.00569605098238
  C   2.14068236362158      1.21841812169601     -0.16864250779668
  N   2.21926634697988      2.56088050187274     -0.33046700560383
  H   3.26069684634640     -2.82189954999981      0.74611492071265
  H   4.58233110900094     -1.88866730217981      0.29814452049409
  H   1.51144261878608     -3.56462069573023     -0.40768176894296
  H   -0.09038357184592     -3.86086949940485      0.01605210181610
  H   -5.45588395014620      1.50419238293618     -0.37373722656911
  H   -5.24581520075491     -0.21151195225710     -0.50057071111087
  H   -2.06502192027971      3.70817914530881      0.65637074763943
  H   -0.00993790461544      2.78212495631219      0.64161237146598
  H   1.41569539617747      3.03433868108813     -0.70664052232515
  H   3.10326043769144      2.92831192073595     -0.64391350208022
