29
Coordinates from ORCA-job ./opt_b97-3c_parallel
  N   -5.69275018821627     -0.26793118309735     -0.01242750329945
  C   -4.53742614447766     -0.12476416173089      0.00288419788371
  C   -3.13065093324651     -0.02503326468353      0.01480493547129
  C   -2.57942788963891      1.25120906313614      0.00778495778592
  C   -1.27103065994534      1.68183952827340      0.00458334172236
  C   -0.05120063130562      0.98711509568582      0.00084039952395
  C   1.14379909035097      1.76848575939526     -0.00826617770293
  C   1.07208904205920      3.17992631363249     -0.00907987371172
  N   1.04117116281924      4.34202068434538     -0.00881062237656
  C   2.42352023979821      1.19660311332719     -0.01714996467965
  C   2.54565140113273     -0.16407515760354     -0.01676641706220
  C   3.65195710544430     -1.06684282314292     -0.02168898347439
  N   4.96825438858843     -0.77360887139211     -0.06853215332480
  N   3.23241983534795     -2.35220615471097     -0.02429195698418
  C   1.88609276903813     -2.31442802741755     -0.01723660315608
  C   1.37393240495389     -1.00255176729501     -0.00980960358981
  C   0.06418125052694     -0.46943960886759      0.00273463423756
  C   -1.00982012570174     -1.37236865600130      0.02196030029451
  C   -2.39398778302689     -1.25092890639045      0.02893338135739
  N   -3.11846947897524     -2.40030962111488      0.08414325375949
  H   -3.31111505476572      2.04904237496756      0.00004244182178
  H   -1.17452889023984      2.75867093382666     -0.00033073537186
  H   3.28186874290548      1.85572123969930     -0.02923659404844
  H   5.60445868414181     -1.53270050867684      0.10442575590128
  H   5.28515287130246      0.14269445577095      0.18922147473463
  H   1.33739249585899     -3.24464061022236     -0.01438924870474
  H   -0.68761713081366     -2.40614357206459      0.03703071196715
  H   -2.66539539044992     -3.28149795236195     -0.06791097627798
  H   -4.11379403796546     -2.37790887498636     -0.05184315239618
