28
Coordinates from ORCA-job ./opt_b97-3c_parallel
  N   5.24093451454772      1.32797472301051      0.72001880981516
  C   4.23719362794843      0.77872909631544      0.51778067040773
  C   3.02999836149552      0.09968441751662      0.27354368212426
  C   2.91432046221506     -1.28941207026138     -0.01823612916949
  C   1.56366844659443     -1.57984384593969     -0.14082379297269
  C   0.89741000077735     -2.78572064763556     -0.36097305470055
  C   -0.46897788797683     -2.81199292827848     -0.32030702289116
  C   -1.25729490703535     -1.65198054326280     -0.09947834355556
  C   -2.61257089865813     -1.87751608206975      0.10704196927520
  C   -3.64998625444313     -1.00302736702495      0.41213220612531
  C   -3.66936225837404      0.36387996324668      0.41213271939380
  C   -2.64394279969147      1.25014913175552      0.02435400880670
  N   -3.01480750102674      2.55503021525556     -0.08180786630377
  C   -1.28827920236163      0.90442482474002     -0.21950242761419
  C   -0.54235052819173      2.00579850598483     -0.70507435835503
  N   -0.08941552149280      2.98588241755066     -1.13893813818571
  C   -0.59243288987377     -0.33619224176857     -0.04555656245990
  C   0.80633768604514     -0.35290615604913      0.04542307868889
  C   1.75739800778612      0.67070792473830      0.30856074794269
  H   3.73585746564067     -1.98198617211688     -0.10053967451450
  H   1.45640284137717     -3.69902057017089     -0.52082132630460
  H   -0.98942118065459     -3.75436937745872     -0.41794602139827
  H   -2.89961484375729     -2.92152446095492      0.08613320700031
  H   -4.59096988049071     -1.47827371308683      0.66161325217637
  H   -4.61232615201745      0.83136850513683      0.66833800231867
  H   -3.99015831796331      2.77791039982539     -0.14462744898935
  H   -2.37837810819247      3.23351969491042     -0.46371720059329
  H   1.56783962817364      1.70126042179240      0.54449005253373
