31
Coordinates from ORCA-job ./opt_b97-3c_parallel
  N   -3.76641722647489      3.29798726941358      0.70349080216722
  C   -3.04800334211568      2.40808639926734      0.49450256457782
  C   -2.23447508914245      1.28129278222925      0.21848994113060
  C   -0.86240080258582      1.52901690975183      0.15097409091891
  C   0.25714121179813      0.73218452267281     -0.04513321222190
  C   1.50774819164206      1.41081906867601     -0.18829795617314
  N   1.52994305509960      2.78128693243838     -0.36309455198355
  C   2.71587470424017      0.69780681131756     -0.09454704448151
  C   3.93531119174174      1.39814782213498     -0.24423418514395
  N   4.91735848739208      2.00432809544966     -0.37628014943939
  C   2.72637670631656     -0.68226877497075      0.12145975422472
  C   3.75440141154922     -1.60157956989691      0.25077289658038
  C   3.15880363997209     -2.87919753547832      0.35070024658846
  C   1.76949697438423     -2.77726351511430      0.27599985387363
  C   1.44611083982472     -1.41497355589120      0.13218299292733
  C   0.23398657929875     -0.72844887680329     -0.00831119190671
  C   -0.93375406400755     -1.49124646109614     -0.14939308817846
  C   -2.28393583645212     -1.18719955429744     -0.21147056985416
  C   -3.15145940609085     -2.28727133292034     -0.43551595083677
  N   -3.90991402668100     -3.14974620738377     -0.61258563352177
  C   -2.93372529762961      0.06969660166756     -0.01499995950987
  N   -4.27565113180504      0.09673354159973     -0.03961729098816
  H   -0.62854793915680      2.57114907182404      0.32421785504252
  H   0.89599629784592      3.14996387335897     -1.05190571477207
  H   2.44856782588984      3.18456077609166     -0.45741843369481
  H   4.80900943691578     -1.38169623078736      0.26872477183328
  H   3.70208984259895     -3.80426063272139      0.47354906287774
  H   1.08300848611576     -3.60393202838797      0.35762840994926
  H   -0.74164559609901     -2.55031548523852     -0.24782794997506
  H   -4.77765486533035      0.95367618534992      0.11707383546235
  H   -4.80977040435475     -0.74586810185495     -0.16346021697261
