31
Coordinates from ORCA-job ./opt_b97-3c_parallel
  N   -4.40087758148430      2.70397876178423     -0.75957208566129
  C   -3.71113868339862      1.79869838122033     -0.52052605217451
  C   -2.84662045099998      0.72036225786044     -0.21495348633239
  C   -3.42900184090146     -0.53748471775838     -0.20929523661830
  C   -2.88795847323211     -1.74497572663513      0.15052838741030
  C   -1.55247439721382     -2.06789099978681      0.39066631586033
  N   -1.33174593923357     -3.25886938277255      0.99194069805561
  C   -0.39136555694155     -1.25859841968626      0.04360697705204
  C   0.82037504133770     -1.94347404214367     -0.27735518065839
  N   0.81155739760660     -3.33615209728965     -0.55428586649971
  C   2.04254607868265     -1.29873101796227     -0.29745583737981
  C   2.11189267981636      0.04355152506024      0.00776690808191
  C   3.17427558998597      0.97702970452758      0.08348203571737
  C   4.53534908209383      0.70396868554890     -0.08647705375132
  N   5.66050451260526      0.44709016665643     -0.23523663367476
  C   2.55905385730515      2.21011050531041      0.35456595224066
  N   1.22393518499332      2.10765233438920      0.44588827208864
  C   0.91193294527269      0.78820690099589      0.23947578943985
  C   -0.36395830085140      0.18003563183165      0.18506612444182
  C   -1.51980221720724      1.06980711648229      0.19174977396281
  N   -1.30547225883840      2.34671198538704      0.48964403876878
  H   -4.48362104298154     -0.55149648187415     -0.45223667545507
  H   -3.59537438438000     -2.55596954747082      0.27586952429608
  H   -0.41866955100929     -3.68773395834655      0.89041608811073
  H   -2.11150591258627     -3.88036364131397      1.11647911152260
  H   1.72933528521768     -3.65625108697352     -0.82297587322249
  H   0.15988710696328     -3.58232456275081     -1.28713843290360
  H   2.93926671049424     -1.84765655896686     -0.56048864386769
  H   3.05356084275588      3.15865372315014      0.49366476644892
  H   -2.05429377007093      3.01212812194407      0.38436565418961
  H   -0.31879755540008      2.66582564948225      0.59199416661140
