25
Coordinates from ORCA-job ./opt_b97-3c_parallel
  N   -3.91187285426396      2.54089007834863      0.00463673624403
  C   -3.23464832414821      1.59688584280314      0.00312182878080
  C   -2.49040424608889      0.39020718473632      0.00125622916342
  C   -3.24952735958516     -0.77702220925610      0.00093825013551
  N   -2.93047618931366     -2.06728074985420     -0.00082832838975
  C   -1.67615507528974     -2.52757188452945     -0.00262648820933
  N   -0.48070672001206     -1.98421377706254     -0.00281965712801
  C   -0.17305643955999     -0.64374170177892     -0.00145602105303
  C   -1.05483114561708      0.51268513926401      0.00011921191656
  N   -0.59012266321589      1.76632502718582      0.00081320394888
  C   0.72711027687086      2.02534558212052      0.00024532634751
  C   1.64974699169323      1.01601891557225     -0.00091717902360
  C   3.08851072015852      0.88501884860686     -0.00202756032548
  N   3.98169263724178      1.87511675869661     -0.00197004516812
  N   3.48297544452950     -0.40161328078192     -0.00352407687546
  C   2.35030410313733     -1.14207947453305     -0.00342833177377
  N   2.32791164728147     -2.46297646465907     -0.00469389296913
  C   1.16901711760312     -0.32290701943364     -0.00173882452422
  H   -4.32206439099858     -0.60468385518309      0.00233671801947
  H   -1.63816477790871     -3.61494984142779     -0.00421867293707
  H   0.99453241422808      3.07682290373134      0.00072974101458
  H   4.96151140626651      1.65491407551500     -0.00192202161874
  H   3.70344228149287      2.83746388359809      0.00046105674875
  H   1.40536134136830     -2.89130501464159     -0.00481078992104
  H   3.17941113793037     -2.99676597553719     -0.00633172430276
