29
Coordinates from ORCA-job ./opt_b97-3c_parallel
  N   3.93870399473253     -2.76643228137879      0.40208777202975
  C   3.14000814878113     -1.93014365545144      0.27906222256912
  C   2.22759928558126     -0.85896638525248      0.12279786972180
  C   0.89246932600243     -1.18577748292928      0.02283943524943
  C   -0.28469818385968     -0.42474412784052     -0.03892340497387
  C   -0.39840652210414      1.01984397343303      0.02353290260353
  C   0.71266172766028      1.89080489564382     -0.28831363052698
  N   0.42396506621271      3.13338098582775     -0.73306624755471
  C   2.08533802241376      1.61173209110088     -0.21560326293403
  C   2.79815997106202      0.45091772182943      0.02561915368506
  N   4.14594405958711      0.54579712530543      0.15631695025662
  C   -1.69570792802078      1.55187635973303      0.24373428970430
  N   -1.89644004233812      2.93012619358272      0.51176970430687
  N   -2.83237676531813      0.85754704445305      0.21139610019239
  C   -2.76636436818887     -0.44366896781160     -0.00411086926990
  N   -3.82088373803217     -1.27754740506054     -0.08298918270127
  C   -3.25992612560433     -2.49931472154927     -0.21090409933121
  C   -1.85147518259559     -2.49967993860181     -0.20978360666804
  C   -1.48829075491606     -1.16039551418357     -0.09471537044749
  H   0.70923858278533     -2.25070225493788      0.04350743036276
  H   -0.52658721670903      3.47991182128994     -0.63134284483911
  H   1.16380071729941      3.79579932391370     -0.87403038470654
  H   2.71255757352126      2.47963023002446     -0.39133367324375
  H   4.60905994206346      1.40965219471087     -0.05397528793579
  H   4.71497189347012     -0.28267497516359      0.15121833541791
  H   -1.40705297135269      3.23726684993153      1.34245434391606
  H   -2.88903869826380      3.07276459141242      0.64146189368763
  H   -3.88992114566263     -3.37299055280334     -0.30844018920845
  H   -1.22120898500937     -3.36835521151935     -0.31530819086499
