33
Coordinates from ORCA-job ./opt_b97-3c_parallel
  N   -3.42449126091142     -3.37476892870058      0.27673030147467
  C   -2.85380423786371     -2.36152125607684      0.18503288326427
  C   -2.16308775046812     -1.14479421275604      0.07502603226025
  C   -2.89008957051989     -0.03629494370603     -0.43664134680736
  N   -4.00027456907293     -0.27513496348687     -1.17620708323423
  N   -2.64549333706454      1.23054457764031     -0.17981586507858
  C   -1.53675445846903      1.77349408295785      0.30252064922772
  N   -1.74320734472594      2.90711210945429      0.99991962893146
  C   -0.17827610883238      1.31912056459690      0.09368845209391
  C   0.84802343999952      2.27675146383739     -0.07964751354930
  N   0.54850288322151      3.67043560670659     -0.15268438643962
  C   2.18095516167801      1.90225390723976     -0.17103250743814
  C   2.54308004467871      0.57490661932498     -0.10120771676605
  N   3.78075031327297      0.05744284725848     -0.22892581828769
  C   3.59745559436194     -1.28153503352507     -0.18406885327307
  N   4.68014480656354     -2.11553643252858     -0.26491670138204
  C   2.25272341806669     -1.66347800105729     -0.00136847057508
  C   1.52223579967172     -0.45795068388745      0.05237160683435
  C   0.16261914479792     -0.08720078652536      0.16181800815385
  C   -0.79920794351590     -1.12099483464544      0.45752007775585
  N   -0.33368333348878     -2.22344124798009      1.06516274179546
  H   -4.65617532397792      0.47960907438907     -1.26777944065938
  H   -4.36154213778991     -1.20967532603883     -1.24867470682282
  H   -0.95835441842588      3.53617687106026      1.12471005053395
  H   -2.66638404780675      3.30295959598688      0.94749802097980
  H   -0.07037039089752      3.88681243273379     -0.92376898060082
  H   1.39718638526100      4.20048157680255     -0.28155762883145
  H   2.94741489426143      2.64991537942198     -0.33656876751574
  H   5.49768619976712     -1.68109178811925     -0.66029348900313
  H   4.50749943855910     -3.04434816156476     -0.60797448952180
  H   1.89481157890804     -2.67826127852208     -0.04078751557376
  H   0.61200810901665     -2.24034068789454      1.40603593243219
  H   -0.93928469025513     -2.99469528839534      1.28192939952236
