28
Coordinates from ORCA-job ./opt_b97-3c_parallel
  N   4.61321039141872      1.06348558911510     -0.15062599438803
  C   3.31631806159593      0.67645300157671      0.01379532936273
  C   2.32931104174071      1.65095321125010     -0.11019799599027
  C   0.93949145054394      1.53065101298348     -0.07417617754215
  N   0.22610835231149      2.66361818105795     -0.12822389384966
  C   0.16820401541211      0.30319508096714     -0.02572491602050
  C   0.75422160963132     -1.02390040706696      0.01060834711204
  C   2.09544532233792     -1.32699260621688      0.28079827593053
  N   3.21420900779104     -0.63460837130238      0.29755495536763
  C   -0.13753776738717     -2.15399231096852     -0.08956360343553
  N   0.37186197254355     -3.43496330090086     -0.20151763790878
  N   -1.46183702555111     -2.08859611206344     -0.05466440570851
  C   -1.99463747133683     -0.87066538292297      0.02707075529265
  N   -3.29704983560109     -0.56962182948381      0.08167261733716
  C   -3.29030868420288      0.78955437793609      0.07204211586497
  N   -4.45077438977271      1.48582618579266      0.07160103009327
  N   -2.08949103515180      1.40449135457116      0.01757746441272
  C   -1.21336966572449      0.35477500981994     -0.00283761158162
  H   5.30606918011951      0.40873524136153      0.16642689933020
  H   4.85880985008456      2.03587118515344     -0.13310776632224
  H   2.69327307565285      2.66559862723851     -0.23626449138120
  H   -0.79991569249077      2.61257214077189     -0.09799677043432
  H   0.69259310269580      3.55150258154364     -0.15167457480553
  H   2.26361978195546     -2.36354094543153      0.55436270941501
  H   1.14075081557436     -3.56355064831456     -0.83550974464748
  H   -0.36698251754564     -4.10471143874051     -0.34647712342814
  H   -4.40135637822643      2.45253859866969      0.33778208835520
  H   -5.26585686361826      0.97975580300350      0.36832562696991
