25
Coordinates from ORCA-job ./opt_b97-3c_parallel
  N   -4.51700491085376     -0.86738619421917     -0.05958188552769
  C   -3.27930891183368     -0.30141400730949     -0.02860199192603
  C   -2.18048460717804     -1.17887138915380     -0.03345755710753
  C   -0.81563683362639     -0.90594607666191     -0.02341517794461
  C   0.07457530055078     -2.01023938745333     -0.02058380738384
  C   1.44523231827220     -1.87646829995195     -0.00949474025653
  C   1.99982503579789     -0.60473271100587      0.00020253079398
  C   3.30515767605214     -0.07289183544693      0.01047381515337
  N   4.49256375909321     -0.71510049589420      0.05274026252160
  N   3.29182687283713      1.30443261858673      0.02102284271456
  C   2.01391255282529      1.66476862634730      0.01198154161574
  C   1.13556398868552      0.54091635633045     -0.00165391189623
  C   -0.25253203956798      0.45465352983400     -0.01540459252136
  N   -0.93636170892845      1.62566290620532     -0.02021880382937
  C   -2.23473776546759      1.81270530649354     -0.02899781091602
  N   -3.31811543051257      1.03548426651849     -0.02580169835437
  H   -5.29156660134896     -0.24722013865732      0.09734300944668
  H   -4.64379502321028     -1.83778803635230      0.15897699326460
  H   -2.43649775930883     -2.23286732489860     -0.05008331726976
  H   -0.35800583704460     -3.00195020837035     -0.02623847830947
  H   2.06319311476699     -2.76712909107546     -0.00221528553894
  H   5.30690062038995     -0.15635790501140     -0.13625250231862
  H   4.54202362422316     -1.68063031688813     -0.21578323265626
  H   1.72332620699571      2.70327562819330      0.01197018420984
  H   -2.50157564030889      2.86764494644110     -0.03399184316372
