23
Coordinates from ORCA-job ./opt_b97-3c_parallel
  N   -0.27278343016297      3.06386496374655     -0.16264646493294
  C   0.16935045933154      1.75689730019918     -0.08684164634012
  N   1.49091684794755      1.60697733688346     -0.06118115701983
  C   1.98054940443492      0.37651960161621      0.01778474672470
  N   3.28681703033123      0.07430273219218      0.05846486374481
  C   3.32071972016553     -1.28445808689231      0.05537309974585
  C   2.06238317047962     -1.89181669589190      0.01723442988999
  C   1.14251649573379     -0.83153417682806      0.00187915503140
  C   -0.24357940061169     -0.69622782224215     -0.03423081927604
  C   -1.05487304473470     -1.83672761681041     -0.09401586927012
  C   -2.42899573308254     -1.95788687891789     -0.11893866620208
  C   -3.38273211385350     -0.94503276002143     -0.02233639495503
  N   -3.24429937373949      0.34057896561738      0.25335721566448
  C   -2.09276984846281      1.00986732211771      0.30825431810321
  C   -0.76956885223556      0.67932848923667      0.01488425417770
  H   -1.04374055502393      3.24873102964257     -0.78110646721531
  H   0.49376609628141      3.70431198582870     -0.29564542144521
  H   4.27225898044514     -1.79596956997688      0.08737201060168
  H   1.86744312415603     -2.95224645197205      0.01824456270601
  H   -0.50779210013522     -2.76901061002546     -0.15917055811634
  H   -2.82367671328551     -2.95984031169515     -0.23460335968939
  H   -4.41692901346295     -1.25247551365097     -0.15334347290715
  H   -2.23551837831589      2.03619155954409      0.63152055777980
