28
Coordinates from ORCA-job ./opt_b97-3c_parallel
  N   -3.38927903722692     -2.57324654623004      0.12959673360206
  C   -2.67001650952488     -1.66101416536334      0.07213803764055
  C   -1.99717281969312     -0.41071857170766      0.02861700284330
  C   -2.86353195012961      0.70936285459898      0.10176132348431
  N   -4.18410897254042      0.48569798452488      0.28714485606309
  C   -2.46499529883170      2.04874067127215     -0.02741663047889
  C   -1.20462995223385      2.55323444324965     -0.17270921848829
  C   0.05998077754071      1.94406536161133     -0.17355482419489
  C   1.09172358539014      2.90204615902055     -0.35487398029179
  N   1.86418246611469      3.75311843955540     -0.52273616440593
  C   0.40993750288733      0.57834466728524     -0.02437287659215
  C   -0.58249474819411     -0.51980971571539     -0.07930113107890
  N   -0.21205611951693     -1.79707076016190     -0.19754440162588
  C   1.06968242659380     -2.17236318686921     -0.16969078031496
  N   1.29285673673314     -3.48199607144697     -0.35859028383850
  C   2.09067216237377     -1.23845886789388      0.05099323011780
  C   3.46443076168022     -1.30727437510565      0.24450891594137
  N   3.99678084792527     -0.06883748685562      0.43975476957850
  C   2.99255509320158      0.80686832253990      0.35517117630161
  C   1.74148626154412      0.15542950278103      0.11739358908669
  H   -4.83426388057632      1.24646405930201      0.23692122076191
  H   -4.55804497819108     -0.44765158650136      0.28673837633249
  H   -3.26409767898011      2.77925614596148     -0.01772968273441
  H   -1.16717544143008      3.62797455716274     -0.29286935956615
  H   0.50118723157703     -4.09720084021066     -0.42309594905670
  H   2.21181139558893     -3.87430131129324     -0.28655542370396
  H   4.10068053123393     -2.18024085792928      0.26554279332569
  H   3.18236199108449      1.85627182571884      0.48683672889202
