30
Coordinates from ORCA-job ./opt_b97-3c_parallel
  N   4.88389701626584      2.01683284143768     -0.14749421093763
  C   3.95477560550305      1.31626107163716     -0.09036896063612
  C   2.79835820180275      0.53432715283129     -0.02986347008889
  C   2.70458139670296     -0.87421708706595      0.03712456860879
  C   1.35731275428424     -1.22954325496788      0.06046527121261
  C   0.70786425585794     -2.47001641957665      0.09876335772804
  N   1.40190813361707     -3.64533840695924      0.19988826325972
  C   -0.68841373119615     -2.47566337232687      0.08176869156654
  C   -1.48592557095743     -1.32951900187715      0.01876189466711
  C   -2.87764360991391     -1.51727590510365     -0.06052651597512
  C   -3.89842276795589     -0.59156562131284     -0.13387474494544
  C   -3.84712925519030      0.78698285775785     -0.11748164517909
  C   -2.68778606628136      1.57326288730659     -0.01324533815014
  N   -2.87331245409974      2.94082769986861      0.01686958934797
  N   -1.41038932348946      1.21487759848195      0.01396010099540
  C   -0.83164368897139     -0.00357075332516      0.00896950027079
  C   0.56382554996831     -0.02485871621873      0.01590293928689
  C   1.48164595267253      1.06954268436280     -0.04107767995071
  N   1.14554726544770      2.36771193740993     -0.07554915279411
  H   3.55864848725788     -1.53178614685240      0.06979927642601
  H   2.36771678747398     -3.63341228832398     -0.07498777063030
  H   0.91868224688028     -4.48676384569369     -0.06113922788454
  H   -1.19505789211905     -3.43320371546836      0.10193602658531
  H   -3.19387201655994     -2.55343622819693     -0.07295534818404
  H   -4.89449102823611     -1.01417667001167     -0.20235027934911
  H   -4.79004435284470      1.31601778453450     -0.17661357069611
  H   -3.77496751856971      3.27355240980162      0.30985649631140
  H   -2.10223113772644      3.46007300992455      0.39985484870358
  H   0.16209717757650      2.55124295156969     -0.21772666583298
  H   1.83786983020047      3.05831177595685     -0.30820709093584
