30
Coordinates from ORCA-job ./opt_b97-3c_parallel
  N   -5.56249183411188      0.27446185127134     -0.03953449154363
  C   -4.42853526662205     -0.00060731029454     -0.04961640366596
  C   -3.05029185695177     -0.27311583115772     -0.05177120652847
  C   -2.65339504032834     -1.62236419462179     -0.06116460291222
  C   -1.40999817808738     -2.17968420543090     -0.02842142284313
  C   -0.12885033957237     -1.56656722936465      0.00904519652153
  C   0.98404702206734     -2.41607720989619      0.03734287845921
  C   2.30223915881442     -1.96843306006170      0.04451241968149
  C   2.52986774317584     -0.61545102433071      0.02323423777518
  C   3.73253167967086      0.17692326444552     -0.00562966754395
  N   4.98899385122965     -0.33472523225780     -0.03661271260974
  C   3.38430796379049      1.52731751344157     -0.06610929444422
  C   1.97918671179101      1.61535658315265     -0.06047274003403
  N   1.21764209361993      2.70884530654422     -0.09469995659756
  C   1.42216985930322      0.28489646670097      0.00253673767439
  C   0.08840249986379     -0.12237809785083      0.00608129807411
  N   -0.83898275433595      0.87780514256163      0.01269145374726
  C   -2.16023799286783      0.84374317964865     -0.00352317231124
  N   -2.74153536583759      2.08130813913914     -0.00780766068744
  H   -3.47628721306397     -2.32609356619063     -0.08732099642121
  H   -1.38987348804859     -3.26238217959981     -0.03581683507250
  H   0.79721651188662     -3.48175005246051      0.04287118868588
  H   3.10904704545015     -2.69167311374224      0.04827627038870
  H   5.11907308313493     -1.28089571218400      0.27355129435402
  H   5.75528261414903      0.27918108245803      0.17488785358338
  H   4.06880756580264      2.36003539202330     -0.10717394515967
  H   1.60370774787317      3.61699093394017     -0.27837239951528
  H   0.21792664055104      2.51819455471558     -0.15314984051869
  H   -2.16738230444217      2.84065851125388      0.30930390760462
  H   -3.72544826880416      2.15706084184732      0.18597343605913
