29
Coordinates from ORCA-job ./opt_b97-3c_parallel
  N   5.59784207823500      1.49378810591344      0.06806604539837
  C   4.48894310665198      1.14614839906841      0.04234451352194
  C   3.13111524192196      0.74619737359634      0.01129657153214
  C   2.17063805214233      1.78464161561602     -0.08920967956185
  N   0.87269699548636      1.75994124742568     -0.11074520544455
  C   0.00800913286254      0.71411347749730     -0.04837544805921
  C   0.30111467790266     -0.73604098223688     -0.01701136275764
  C   -0.75713183113434     -1.62989744585836     -0.04568389653008
  C   -2.11169576741212     -1.24755886811296     -0.06755534493838
  N   -3.08639573494707     -2.20792148086014     -0.13710135452427
  C   -2.40916568746578      0.10668423183526      0.01660661256184
  C   -3.61903040195611      0.82897717142076      0.08347907589745
  N   -4.87841415958268      0.29966484192289      0.18311962068089
  C   -3.30326386853500      2.21966524933375      0.02009086320901
  C   -1.93688267294867      2.36198106809605     -0.04356720299265
  C   -1.33669234574365      1.06446668009118     -0.03166636098347
  C   1.63420900834109     -1.27399339812456      0.03742441664833
  C   1.74769432161567     -2.68814080528314      0.08597023250048
  N   1.83598281299068     -3.84658602007420      0.12191135826232
  C   2.85655636549931     -0.61544906879258      0.06101429399238
  H   2.59387011864420      2.78393952539214     -0.15726616052646
  H   -0.53867052611433     -2.68827556704238     -0.06896116938884
  H   -2.77604361790055     -3.13693882050271     -0.36873845029756
  H   -3.93432182437164     -1.95021648010834     -0.61492354322020
  H   -4.96307170178752     -0.54361767955190      0.72871796380477
  H   -5.61020621081024      0.95858746019250      0.39234210102495
  H   -4.02911692280981      3.01798021592973      0.05151143557603
  H   -1.38546203026629      3.28560159013153     -0.07770671613372
  H   3.72175763240993     -1.26200746533197      0.12122723395031
