26
Coordinates from ORCA-job ./opt_b97-3c_parallel
  N   3.74686320571286      1.87921679821496     -0.31189584863904
  C   2.95851444541349      0.80850532393061     -0.06875032096443
  N   3.65587047792805     -0.32916403073285      0.11602734870608
  C   3.08265618847383     -1.51739546841623      0.24111477823000
  N   1.84847013667062     -1.97569603004224      0.17174422343588
  C   0.71903326573341     -1.24102422988162      0.04959246748272
  C   -0.45514036162735     -1.97675116740827     -0.05229909455524
  C   -1.73908535641862     -1.40912118378285     -0.08587606581388
  N   -2.84760962646867     -2.20545385672507     -0.20779356328809
  C   -1.83935245142763     -0.02679280801946      0.05764369511820
  C   -2.90995608894954      0.88805318701554      0.11107992437079
  N   -4.25126279028479      0.61808537822781      0.13465394265226
  N   -2.46810559405088      2.17855574288750      0.12135576858647
  C   -1.13129648283395      2.11325509907996      0.09931048249438
  C   -0.65690707450584      0.77936885986560      0.08031729942313
  C   0.64022449644780      0.24969491139612      0.04222777760970
  N   1.65776901411751      1.10424116666023     -0.03512460240313
  H   4.74100341898280      1.77230153219755     -0.23845712123747
  H   3.33380179960767      2.79207422945666     -0.34300027099541
  H   3.80897852141794     -2.30716484292022      0.42184669932618
  H   -0.34085908001917     -3.05195399009346     -0.08707420909537
  H   -2.68124546752727     -3.14874924349196     -0.51586825175256
  H   -3.64932068946421     -1.78419394485421     -0.64864136217364
  H   -4.53116249256846     -0.17535175863332      0.68956987854462
  H   -4.80984544699681      1.43750234346224      0.31926929086393
  H   -0.53049432006338      3.00873748380695      0.10791154587364
