29
Coordinates from ORCA-job ./opt_b97-3c_parallel
  N   4.85224153139200     -1.95062339887304      0.36124814684454
  C   4.00012415662658     -1.16691270624237      0.27913681739188
  C   2.98411799838024     -0.17961129066562      0.17954560827871
  C   3.39902419526819      1.15082975825686      0.39398299012387
  N   2.76393696086448      2.25997257512844      0.14187481581008
  C   1.49805187536500      2.42775285542993     -0.24544647320496
  N   1.28357451936982      3.60909924647705     -0.84522853249448
  C   0.36528481833378      1.57057107505227     -0.00333454774213
  C   -0.87569055924711      2.16852022089447      0.14514755808085
  C   -2.07042496399494      1.43763489480903      0.23754233111186
  C   -3.29345414727945      2.11962259351274      0.43697771270001
  N   -4.27356685488352      2.72013429040943      0.59619600283580
  C   -2.02493015262909      0.05299141091609      0.10071954995506
  N   -3.05686011051639     -0.80775596335108      0.12037501057966
  C   -2.50391688167827     -2.02266215278438     -0.02968132838160
  N   -3.24418993756498     -3.13403529919572     -0.08503865066296
  C   -1.06797515535059     -1.97279912340264     -0.14244561575439
  C   -0.26940431390387     -3.10066603134975     -0.31062319323849
  N   0.34696818031823     -4.08064237623814     -0.44880780150101
  C   -0.73787528508104     -0.61030213963172     -0.06381472417494
  C   0.47950010547114      0.11745567281359     -0.04463781750639
  C   1.67678514228698     -0.60328394966305     -0.03810201449960
  H   4.40555114019770      1.28433692308796      0.77705573354536
  H   0.43591162771983      3.80054130033179     -1.34509597389660
  H   2.06342597744120      4.23500876747768     -0.95037572349981
  H   -0.94321454834598      3.24207928203487      0.23501617094242
  H   -2.81749259799941     -4.04144127407943     -0.11850100846674
  H   -4.23461236953300     -3.06681994850655      0.06277331235771
  H   1.57159757587270     -1.67463388164956     -0.12966962813313
