29
Coordinates from ORCA-job ./opt_b97-3c_parallel
  N   4.84855108513809     -2.12856829660378     -0.53818043037274
  C   3.80393026370476     -1.65915522923122     -0.34214989432138
  C   2.55780680145511     -1.02155234636738     -0.12001391104044
  C   1.48750498135947     -1.84238598283676      0.16414750596101
  C   0.11541929885865     -1.59515244717153      0.26059459192511
  C   -0.69153246623625     -2.76980293387845      0.31872531261720
  N   -2.00027588781163     -2.81032836392413      0.24723343193225
  C   -2.61509843063443     -1.64125929673712      0.04076864970637
  N   -3.94068535843719     -1.50261961572712     -0.12074059295276
  C   -4.14057768199468     -0.19129460096410     -0.32415971503426
  C   -2.96417494959916      0.58646742463858     -0.26077513224410
  C   -2.88425166739896      1.94761832303614     -0.56816291427733
  N   -2.80020508644135      3.08663916087929     -0.79832509868573
  C   -1.91578377280665     -0.35111409408412     -0.01438938759568
  C   -0.53853409383051     -0.32298270892508      0.19894592739981
  C   0.15307710236074      0.92033161759514      0.50349694458980
  N   -0.57338252877956      1.85198646511265      1.11383569447985
  C   1.49489138897316      1.24858892310721      0.18200399171849
  C   1.83487972828939      2.61186525780528      0.32272815921162
  N   2.12767520954856      3.73132692536332      0.44066693763269
  C   2.56394670406985      0.40768605903528     -0.21228068097557
  N   3.70669691756667      0.98580622941397     -0.60692387826784
  H   1.75048854689343     -2.89058564911331      0.23422948684287
  H   -0.18319041601929     -3.72437286701284      0.40555677559366
  H   -5.12603327547796      0.19369322073931     -0.54022217500460
  H   -0.24707582122743      2.79837349948243      1.22346947262070
  H   -1.54634901468248      1.69015804861274      1.30318027186755
  H   4.52565533554523      0.43224636924194     -0.79296158552742
  H   3.80767278801530      1.98604277161275     -0.62537111049958
