27
Coordinates from ORCA-job ./opt_b97-3c_parallel
  N   -4.67051404690979      1.47695838605241     -0.03336196008796
  C   -3.69818752411946      0.83347426246613     -0.02822256570628
  C   -2.55979491145975      0.03111164811546     -0.01703541204752
  C   -2.56022454711204     -1.39583617756178      0.01253037338003
  N   -3.67867285965107     -2.15668957134624     -0.02543562646072
  C   -1.23119627255531     -1.86006385769593      0.02451445155532
  C   -0.37702377648815     -0.75301287104883      0.01914696984831
  C   -1.21291541605444      0.44510108125877     -0.02133709002138
  C   -0.64670793317291      1.69387864693158     -0.08957264524413
  C   0.74440161603600      1.85946024587983     -0.06995860756580
  N   1.26410968610815      3.14571872337975     -0.06982774213507
  C   1.60284665018918      0.74162624212818      0.01211879479023
  C   2.94788816673182      0.97179296741804      0.34763178347963
  N   4.03152238271568      0.22583570030769      0.21951434891250
  C   4.02925236659384     -1.03388358613462     -0.21704692212911
  N   3.10676503556665     -1.96989558103161     -0.14965071428825
  C   1.81030990682087     -1.76796798000478      0.08055447109095
  C   1.02670876812513     -0.61868446959387      0.00037546866154
  H   -3.61829106332790     -3.12192449533338      0.24181194758206
  H   -4.56292646776340     -1.71276605588153      0.15284307144706
  H   -0.95219422710333     -2.90103014606261      0.00482922236740
  H   -1.28427866537429      2.56785239991965     -0.15730204350398
  H   0.58225441030045      3.87156446546126     -0.21059850025455
  H   2.08028799889757      3.29493669954492     -0.63765048448929
  H   3.15573784396974      1.95559226003424      0.76011504929491
  H   4.98454396341648     -1.36761243852102     -0.61259422286448
  H   1.27102491102111     -2.68610894268155      0.28860828958857
