29
Coordinates from ORCA-job ./opt_b97-3c_parallel
  N   5.48402069732806      1.92881343388130     -0.01471480521822
  C   4.42169978514888      1.45210345604573     -0.01321451859097
  C   3.16807793728527      0.80854341582127     -0.01101314085880
  C   2.03468948976971      1.62002264959125     -0.01740525034244
  N   0.74939795815236      1.34962388457660     -0.01857107055735
  C   0.16309420179197      0.12677682995309     -0.01084947703848
  C   0.81680050282267     -1.21789040425869      0.00176673414664
  N   2.12986727615777     -1.45829682814807      0.00222970771960
  C   3.15748782849988     -0.62842586073534     -0.00407936632135
  N   4.35195544696020     -1.24986291190083     -0.00302803307653
  N   0.08218114358935     -2.33258834525761      0.01275044427498
  C   -1.25885939079781     -2.31276203473079      0.01067647012650
  N   -1.84654813636123     -3.52354597592869      0.02345480600005
  C   -1.98227824324875     -1.11033620695363     -0.00472257388950
  C   -3.33669355550130     -0.77400156094454     -0.01053859012795
  C   -3.46171603155670      0.63257163602749     -0.02426219207702
  C   -4.63578061818478      1.39188640444188     -0.03363336191344
  N   -5.57864603398268      2.07457469563656     -0.04181776673835
  C   -2.15497366339322      1.19262567331142     -0.02678250424974
  N   -1.81476701178226      2.47629309028332     -0.03796479961941
  C   -1.21767074255308      0.09913223599992     -0.01501533929701
  H   2.25161127563851      2.68446602463985     -0.02300436546168
  H   5.22200219707035     -0.74851671440962     -0.00692034114304
  H   4.35196949654726     -2.25370860225673      0.00311732911233
  H   -2.84133522755663     -3.63641945417080      0.02815964612327
  H   -1.25765568443255     -4.33625884880104      0.03712401088544
  H   -4.17886056925311     -1.44794797479271     -0.00558750524319
  H   -0.82052510266983      2.67691571922154     -0.03594536659338
  H   -2.50814630578839      3.20406506636025     -0.04453161523017
