28
Coordinates from ORCA-job ./opt_b97-3c_parallel
  N   4.68835848087584     -1.70260638170102      0.24813483022778
  C   3.88589489202061     -0.87446845383855      0.10834286476126
  C   2.88109162017130      0.11625245639091     -0.01414231425664
  C   3.26802955962014      1.32486951736552     -0.58554497385870
  N   2.68466991527209      2.50956713428383     -0.51270552915171
  C   1.46548509675973      2.75751372909767     -0.09145622492187
  C   0.34077222546053      1.92312654169250      0.07454381024439
  C   -0.89997910582585      2.60106130282783      0.15973599419005
  C   -2.09605482558107      1.93425588206020      0.17072042545792
  C   -2.09821965126406      0.54669569656839      0.05936479733131
  C   -3.16609257804875     -0.36790853076574     -0.04546897372966
  C   -4.52673252108893     -0.03025892468783     -0.03979448075252
  N   -5.64771451547575      0.27756226114623     -0.02815284510731
  C   -2.61910642564654     -1.65596780903248     -0.18834210329125
  C   -1.22302775867835     -1.58278641872437     -0.14146744989931
  C   -0.38120119314206     -2.66918310803312     -0.40482339721255
  N   0.33851545363617     -3.56294489173479     -0.60201307974311
  C   -0.85578479499591     -0.19641866067952      0.02671543728856
  C   0.36540570114536      0.48068869285944      0.12186368758619
  C   1.58333787667857     -0.22685875197026      0.46997331927823
  N   1.47470038628912     -1.30835918432986      1.23176865155209
  H   4.23693910107823      1.33057834715207     -1.07257136147879
  H   1.26907216600344      3.81638592984231      0.05184266309808
  H   -0.88700049447714      3.68146311446959      0.17595285327854
  H   -3.03161383353189      2.47408817729486      0.22895813872737
  H   -3.18273497857533     -2.56061500906435     -0.34433210296390
  H   2.25051636838830     -1.93853041989883      1.36135730368753
  H   0.57214346603143     -1.63871994569035      1.52371252775801
