31
Coordinates from ORCA-job ./opt_b97-3c_parallel
  N   -1.42521598922786      4.09569889302894      0.62618916246880
  C   -1.24748475729003      2.96272555805271      0.44223363135160
  C   -1.13695073998521      1.56322030818178      0.23122436229349
  C   0.13909960093093      1.06937899021459      0.05779042668588
  C   0.66645431638673     -0.23001106119619     -0.00607868116125
  C   -0.10769930115833     -1.44651107990003      0.08534584276572
  C   0.55847022927217     -2.65254618456597      0.35412703994983
  C   1.93801807419817     -2.74707604191573      0.44768245013346
  C   2.72417055092145     -1.63974173343081      0.20870644637860
  C   4.12038390393415     -1.45966862822684      0.18098151154982
  C   4.36458893653556     -0.12572003793604     -0.08475756935988
  C   3.13164927973821      0.57783276201621     -0.21555706658876
  C   3.04786836937485      1.94088935238341     -0.51640921707461
  N   2.97895782577253      3.07708865549847     -0.76567724054230
  C   2.08117552454101     -0.35142751126777     -0.03682574281561
  C   -1.51417739051891     -1.52855423465858     -0.21292716838718
  N   -1.96477583552329     -2.75360864392891     -0.57295125516102
  C   -2.50329522593446     -0.51573278163724     -0.12221429510513
  C   -3.82814160906729     -0.93494266671395     -0.37432193465847
  N   -4.92146825383255     -1.27762703255227     -0.57820159839763
  C   -2.37530700711749      0.85653544057299      0.19870866659855
  N   -3.49670265658501      1.56580943057259      0.41593894920821
  H   0.88523407996779      1.84891071444797      0.05586783023934
  H   -0.01981222162658     -3.53850991767103      0.56809564459314
  H   2.39041976285854     -3.69853566003705      0.69682650453211
  H   4.85987826462529     -2.22926574864967      0.33113492055299
  H   5.33141380906492      0.34008411758562     -0.19210968809982
  H   -2.92758341128085     -2.88810638032285     -0.82912460540965
  H   -1.31257222382427     -3.42454579373082     -0.93173778280651
  H   -3.45498997749373      2.56494757184563      0.52255141016157
  H   -4.40513689186032      1.14379114124396      0.33952445410512
