31
Coordinates from ORCA-job ./opt_b97-3c_parallel
  N   -6.16385279560858     -0.89216328024069      0.68008934297237
  C   -5.10791498610008     -0.46893365706504      0.44550676397353
  C   -3.82489282996308      0.05603269557651      0.15214532266181
  C   -3.76126494854967      1.37170084193965     -0.34360559665344
  N   -2.71555800028022      2.15951629511877     -0.37298664384727
  C   -1.45397327791748      1.89326277424660     -0.08303225986061
  C   -0.73008175992042      0.69199371748098     -0.08051429300207
  C   -1.38457046650647     -0.63129829675965     -0.05518996397399
  C   -2.73421012353354     -0.82001038496926      0.21248685894920
  C   -0.58176977612605     -1.80547176986687     -0.14911635496731
  N   -1.16768860521187     -3.04017957889414     -0.23663784341197
  C   0.82544358777031     -1.70970698527436     -0.09896147070817
  C   1.57140116877843     -2.90606058504758     -0.19567073670773
  N   2.09353209129485     -3.93898939985905     -0.29161036940801
  C   1.45573072462023     -0.46999164072422      0.02129402692214
  C   2.81323658505975     -0.13366342785841      0.09769090940501
  C   3.94317778339485     -0.95261097595763      0.15895039127264
  N   4.94810006442033     -1.53645848838931      0.21821077627004
  C   2.89983886083726      1.29108616140206      0.10453099903425
  N   4.03252129831916      1.99024061428989      0.17067392053931
  C   1.58892563598758      1.83403511816416      0.03054521029941
  C   1.37348109210135      3.21017786239941     -0.00570232923992
  N   1.27740294533328      4.37170582926867     -0.03271624190367
  C   0.66851597396948      0.75242379523368     -0.00456344296892
  H   -4.68458216496076      1.81258317588246     -0.70538251707972
  H   -0.88211592716644      2.78938204350025      0.12269093952548
  H   -3.00756384544463     -1.83134763840894      0.48413809279237
  H   -0.54587488014101     -3.82847738240634     -0.31533126918686
  H   -1.98485521086031     -3.12987095626791     -0.81316536550168
  H   4.92148732334657      1.52363879217483      0.20843036977856
  H   4.02156909745825      2.99465383141199      0.16098215532457
