23
Coordinates from ORCA-job ./opt_b97-3c_parallel
  N   -3.94966583457148      0.67329370441660     -0.61100972953572
  C   -2.81012908652100      0.17330950612608     -0.08950134534088
  N   -2.86502530573027     -1.12508754139343      0.23128176976581
  C   -1.78241400599393     -1.84879286260011      0.48226599273375
  N   -0.49011992317439     -1.63809956379599      0.34011162120919
  C   0.11983330376932     -0.45995641661916      0.12753468219680
  C   -0.55444034901834      0.88444079841873      0.22638552324933
  C   0.25048845741614      2.03432826498315      0.38345963459536
  C   1.61912036083071      1.98780730474858      0.24840380331933
  C   2.25731846457413      0.77633185517285     -0.01811845275235
  C   3.60446873978033      0.43540136678922     -0.16787207238090
  C   3.69282224031568     -0.97158236871596     -0.32610995082956
  C   2.42208580781128     -1.51323761435103     -0.25914625072354
  C   1.49169508828369     -0.44296731687630     -0.07784900994579
  N   -1.85271589422518      1.09868706540591      0.09563594142570
  H   -4.04495931709650      1.66724588053445     -0.70443019754915
  H   -4.76379829639552      0.08763512248128     -0.63600483839126
  H   -2.01748471915478     -2.85247553964618      0.82741000718822
  H   -0.26620873793797      2.97373299560186      0.51305656527305
  H   2.19658990888774      2.90119765689933      0.32733073594987
  H   4.43653475821693      1.12326356862119     -0.14615416087749
  H   4.60755449487628     -1.52556446405839     -0.46821043569883
  H   2.15649234645711     -2.55451423494268     -0.33583266008094
