28
Coordinates from ORCA-job ./opt_b97-3c_parallel
  N   3.99968170011623     -0.43433201322831     -0.14104850377025
  C   2.79647794479239      0.23565527446664     -0.14093027045538
  C   2.62705219851875      1.63722314988354     -0.19970527824419
  C   1.26384656321343      1.92838916379343     -0.14046520577401
  N   0.70527791647291      3.18279500321936     -0.16815604385342
  C   0.53901258739792      0.69040821896336     -0.04369227644213
  C   1.52602953654996     -0.36117164131931     -0.04287591018994
  C   1.07737330634556     -1.66093817906815      0.16149088650807
  N   1.94248706149587     -2.70420815881971      0.40701151149157
  N   -0.21510639414954     -1.98640218965407      0.06459342493499
  C   -1.14743590774862     -1.04313810677302     -0.11509274569178
  N   -2.33205843218239     -1.50548362709455     -0.52809909623821
  C   -3.51747663517973     -0.92108654773783     -0.54286593033748
  C   -3.95733745761844      0.26910537897338      0.01053715863532
  C   -3.13550512825327      1.27917966326291      0.51398945655741
  C   -1.76485393171150      1.34997716389127      0.49653639005110
  C   -0.80881471515197      0.38928625513940      0.06899406746709
  H   3.97372884387911     -1.34264470532158     -0.57813283839408
  H   4.78740885206849      0.10698590148090     -0.45722928406041
  H   3.42193208164111      2.36108044227876     -0.30298225029393
  H   1.29565874438644      3.90432919404698     -0.54884703750522
  H   -0.23242997767045      3.22721287859915     -0.53511031711105
  H   2.73266786418148     -2.48655870282353      0.99276967467199
  H   1.46013403140954     -3.54803424482865      0.67537926467045
  H   -4.27649841924114     -1.51765978771323     -1.04590855413815
  H   -5.02531182633037      0.44703193221767     -0.00285892247942
  H   -3.64150138292321      2.14153298899245      0.93449934515186
  H   -1.34244226070607      2.24244444297011      0.94065646543981
