29
Coordinates from ORCA-job ./opt_b97-3c_parallel
  N   -4.50479637920506     -1.34630481324542      0.13208309398412
  C   -3.59717621639465     -0.62029414677621      0.12742495923540
  C   -2.50100442599482      0.28418155615585      0.11635125221132
  C   -2.86644107371428      1.58232376468029      0.43619974652381
  C   -2.11226041490956      2.74757825436479      0.44053014877054
  C   -0.80014615695764      2.86984704792405      0.04958239185593
  C   0.13631004949379      1.87450630874770     -0.24925750932248
  C   1.29777635141893      2.37671564111974     -0.86695587135055
  N   2.25578795551320      2.81475726595637     -1.36670002284882
  C   0.06454257453390      0.44696738049711     -0.05070029296588
  C   -1.19673714351582     -0.29858598753812     -0.11948733609033
  C   -1.15549086238736     -1.66137976001665     -0.37102380517964
  C   0.02557655590341     -2.41919893787382     -0.37756802700722
  N   -0.02576732121413     -3.74429824617491     -0.66173273676857
  C   1.21235509662998     -1.75408246901339     -0.07465483296435
  C   2.50309153293413     -2.19344233695185      0.23537458487950
  N   3.31286784494774     -1.18631679076454      0.59406005150943
  C   2.59019575501593     -0.04540066987591      0.49959057730172
  N   3.15438090633361      1.09994552018623      0.92007854370161
  C   1.21933607577621     -0.32198378440580      0.08573615605617
  H   -3.91424420498811      1.70649915651697      0.67837780361109
  H   -2.63705226470625      3.66102385736052      0.68345669871938
  H   -0.43243361541692      3.88181984419493     -0.06820938340196
  H   -2.08795071770076     -2.18636778334526     -0.51848284742595
  H   -0.91308164167935     -4.21323808641026     -0.63332644606837
  H   0.77366109932679     -4.32086957811073     -0.47635250522039
  H   2.88055043093502     -3.20648312387111      0.22532145369616
  H   4.12695473463523      0.99694192031189      1.16513896455182
  H   2.92442843268509      1.97016069715566      0.46400151200669
