30
Coordinates from ORCA-job ./opt_b97-3c_parallel
  N   5.29399354884072      3.06931136403850     -0.28372526975833
  C   4.31537230902686      2.44928443367157     -0.20209832474554
  C   3.10970536892489      1.70871066901276     -0.10884953127983
  C   1.90556147765629      2.42214878839135     -0.28862266089152
  C   0.62301766359465      1.97042163653823     -0.20992113108280
  C   0.06472940958149      0.67282894501290     -0.04334854984773
  C   0.83068933917474     -0.56531962218896     -0.04260317913290
  C   2.22310951540234     -0.61873077422848      0.29080311527628
  C   2.71621329924317     -1.82848382822376      0.85261507277908
  N   3.16899621960536     -2.73899352618680      1.41410989527119
  C   3.21191431349152      0.36516265892590      0.21291040920746
  C   0.13508163408624     -1.77839746136051     -0.29013249908110
  C   0.80331953181655     -2.96903394645788     -0.66328459921660
  N   1.25376599543228     -3.96291084718455     -1.06065008680607
  C   -1.26778237243411     -1.84377827899370     -0.28658817912667
  C   -2.00192278154780     -0.71351642216204     -0.06391502820626
  C   -3.40232866338605     -0.48322209960036      0.01252809942347
  N   -4.39333304581538     -1.38112048379913     -0.06273065301944
  C   -3.58567887001042      0.92749704667858      0.16374503007236
  C   -4.84540169614682      1.52580548450793      0.29463717127968
  N   -5.92238680835281      1.95247763698286      0.39672791227678
  C   -2.33338973146031      1.54972446146453      0.17496331709335
  C   -1.33205390915577      0.56717505060151      0.03813908646527
  H   2.01989541436836      3.47872549007286     -0.49125383147567
  H   -0.11855358338643      2.74144968766955     -0.36265754605537
  H   4.20909104447333      0.01544686712696      0.44227050300665
  H   -1.72932902869536     -2.80493669938324     -0.47077161560953
  H   -5.34682268600629     -1.09275943973027      0.07199953350766
  H   -4.20810342294168     -2.36637593516005     -0.04356323027381
  H   -2.19682627497945      2.60986015996441      0.30589836344991
