33
Coordinates from ORCA-job ./opt_b97-3c_parallel
  N   -4.96071679400379     -2.13082447276078     -0.48074121567888
  C   -4.15479202706246     -1.30724374837379     -0.30956112040090
  C   -3.19245623300746     -0.29916357965169     -0.09792897835339
  C   -3.72381547358726      0.94807026254762      0.31544753626134
  N   -5.03571614050020      1.00199610479924      0.64225706795336
  C   -3.01651548401431      2.15924934486930      0.35578993020699
  C   -1.69193072192445      2.37770785587969      0.11341167613407
  C   -0.59658706419502      1.51165946597460     -0.07086501254824
  C   0.63881551294840      2.17107088472201     -0.17660068138339
  C   1.85401406677408      1.50451111641814     -0.21156960687833
  C   3.04479775234817      2.26379388586763     -0.33514595201300
  N   3.99053354706387      2.92704582578548     -0.44382748500380
  C   1.86792016049559      0.11317264678478     -0.07229610898535
  C   2.91791332193000     -0.80454916653695      0.03374656329948
  C   4.29945713475226     -0.60363387745816      0.03220669885008
  N   5.46318019156200     -0.56233687419820      0.05606274707001
  C   2.33131728556962     -2.09648123569570      0.23294512377625
  N   3.05650557226139     -3.22817264498484      0.38939398979421
  C   0.93738341710817     -1.98279226795185      0.19807415463972
  C   0.60187376661081     -0.62083626536737      0.01351259431060
  C   -0.63027425151538      0.06495488266336     -0.07910939203894
  C   -1.84073072851955     -0.67898804576685     -0.33953244812847
  N   -1.67593048456198     -1.91271853560669     -0.84726735461938
  H   -5.47804774733536      1.89197867839090      0.77363177866073
  H   -5.64046787645752      0.21071485417280      0.50776746978552
  H   -3.60946302248650      3.03730427701699      0.58017000433568
  H   -1.41311977581972      3.42417787467514      0.12872307586197
  H   0.64589217324970      3.25016328624965     -0.20462674373854
  H   2.60885981403498     -4.04407292508456      0.76474069572175
  H   4.03597229833449     -3.13528013470160      0.59992434845889
  H   0.26903908695393     -2.79396968580014      0.43084813393871
  H   -2.46467386876266     -2.46244590132498     -1.14002551035878
  H   -0.76325934434334     -2.19120614995306     -1.16839701433053
