28
Coordinates from ORCA-job ./opt_b97-3c_parallel
  N   -4.68448000872086     -0.57522058111229      0.64627009041939
  C   -3.69844682670814     -0.03038482190024      0.36133187959507
  C   -2.46711007783144      0.60156366783470      0.05616627949059
  C   -2.56134357096317      1.84489721593827     -0.56996263260808
  C   -1.57459853510873      2.77376940332867     -0.81090565981111
  C   -0.23831828970750      2.69474615019529     -0.44808743075809
  C   0.51163181830840      1.62498118998523      0.02206345855601
  C   1.92148230790321      1.87748792754511      0.26772114150029
  N   2.34943077549974      3.16768154610182      0.46482409335861
  N   2.85543580691033      0.94949055773447      0.24242240388281
  C   2.46501295984345     -0.30482374429463      0.00030722709540
  N   3.30416132797001     -1.34128075172979     -0.12239254444660
  C   2.51524479163560     -2.42561053729271     -0.26561424644505
  C   1.13986479950426     -2.14835704038206     -0.19665363860082
  C   0.12064797702753     -3.07100478084614     -0.44306989337777
  N   -0.74365090928326     -3.83235254675831     -0.62069558859480
  C   1.06055604708625     -0.72288773303773     -0.03705480740609
  C   0.07284915568471      0.24095604815466      0.08219289864251
  C   -1.29500719012854     -0.11848934767021      0.41778557335773
  N   -1.45451023859234     -1.23846270593076      1.11960424108593
  H   -3.56642553089371      2.13226394043076     -0.85047622916148
  H   -1.88904911447157      3.69342001324007     -1.28483674663954
  H   0.33402481241196      3.59450289193207     -0.63357656706701
  H   3.33808655653068      3.22003198505115      0.65101084498682
  H   1.79585305169497      3.75392078562034      1.06496921933478
  H   2.94315244445583     -3.40124884545633     -0.44128771042226
  H   -2.36541013810281     -1.64231049612078      1.26701567694043
  H   -0.66381603955505     -1.81041706716075      1.35537578359231
