25
Coordinates from ORCA-job ./opt_b97-3c_parallel
  N   5.08718198099201      0.57693794291408      0.36271106790058
  C   3.99797292702615      0.19407671975527      0.23779199169223
  C   2.66876727550150     -0.27946848246617      0.07564000086891
  C   2.52361382743942     -1.64178567985749     -0.22224945570217
  N   1.43024439213469     -2.38432021411636     -0.19927009930756
  C   0.18526674755788     -1.98927836780081     -0.01984700690411
  C   -0.44504233835246     -0.72598669399720     -0.05436830334593
  C   0.27735806767562      0.55650434028552     -0.03872077408134
  C   1.64507105788003      0.67801321831562      0.14213276913772
  C   -0.49519529676042      1.76096303140440     -0.10630249354131
  N   0.13051071342671      2.99296981368831     -0.19055807445201
  N   -1.82285370532239      1.79970104042489     -0.03202589946147
  C   -2.48970585073686      0.65557608002289      0.04505070947055
  C   -3.86650293440825      0.45342925213746      0.13606900472862
  C   -4.08395673554704     -0.93677515717267      0.10782407279838
  C   -2.86966590820011     -1.62372006648295      0.00782238847279
  C   -1.83465512155610     -0.66873697657452     -0.01520985166836
  H   3.43359091717839     -2.18645054135868     -0.45011799316678
  H   -0.49679460165209     -2.81794775858089      0.14055743975053
  H   1.99543490102352      1.68145657224455      0.34386419023555
  H   0.87369924427111      3.07295610669008     -0.86456320438414
  H   -0.54342213678919      3.73642047894904     -0.28439717403911
  H   -4.61377021610457      1.22668939253010      0.19692108289773
  H   -5.05294746349458     -1.41106176192145      0.14894261196968
  H   -2.76943014678283     -2.69483179163309     -0.05812923786891
