26
Coordinates from ORCA-job ./opt_b97-3c_parallel
  N   1.87300295784709     -2.51122573163821      0.18999868060511
  C   2.06110702994430     -1.14656857315101      0.08045054184539
  C   3.32560995133650     -0.52358772440802      0.02367571517297
  C   3.16053527685632      0.85418630223308     -0.08139912843322
  C   1.78209326086770      1.13078250953432     -0.07766752862733
  C   1.07760705196700      2.31248661460412     -0.09410916282666
  C   -0.30786216638371      2.28901530442253     -0.02069708312623
  C   -1.05224694959446      1.10226670653768      0.02078949962195
  C   -2.45153375560665      1.24757738327466      0.16273440448322
  C   -3.48895719539758      0.34201652977304      0.18909954841187
  C   -3.45289851622495     -1.03552859809561      0.00308723923910
  C   -2.32220816032364     -1.79761324041624     -0.23785832277622
  C   -0.98994088096197     -1.42474757795863     -0.26086945762226
  C   -0.34236041798151     -0.18364863572289     -0.05990440119839
  C   1.06068532016462     -0.13551014535652     -0.00856617250240
  H   2.69207907635979     -3.00531217117947      0.50850576265357
  H   1.05952671653999     -2.78539625728908      0.72104151255901
  H   4.26866026785990     -1.04812557859609      0.07726232272946
  H   3.94995733263619      1.58811976329081     -0.12495424428459
  H   1.59802793344009      3.26147723689164     -0.14102137470605
  H   -0.84793596987846      3.22587904558039      0.00681243908871
  H   -2.76105598584662      2.27955745513289      0.28585877764038
  H   -4.47119063043454      0.77273757745370      0.34675773354052
  H   -4.40152587208716     -1.55717226845724      0.02030085676815
  H   -2.49911374788262     -2.85034828769037     -0.42949895886039
  H   -0.32376289101563     -2.23038323866946     -0.53111676039566
