21
Coordinates from ORCA-job ./opt_b97-3c_parallel
  N   3.78215845310190      0.62325347555635      0.79959835756056
  C   2.75956665407742      0.16452616837631      0.06353454283542
  N   2.88769783605641     -1.09682809610128     -0.38252724358706
  C   1.82911888563550     -1.81560667589972     -0.70619705181977
  N   0.54089536695966     -1.65025786246557     -0.45931905451248
  C   -0.07662671239699     -0.49849787298664     -0.20617415665044
  C   0.54900421207796      0.85233938050716     -0.44713178935298
  N   -0.19881638265056      1.92679604942242     -0.78028157924149
  C   -1.50132020130346      1.88049075640905     -0.55853023458396
  C   -2.13566651126468      0.78919644643264      0.03529195366103
  C   -3.45980550930388      0.47613616999257      0.35888034208537
  N   -3.59291192348629     -0.83238798522378      0.71240124323053
  C   -2.37866578468684     -1.38865171051346      0.59281652337029
  C   -1.40698248335208     -0.43821572236575      0.19299874035936
  N   1.82402996359034      1.08241117742360     -0.22793020836790
  H   3.83497992939952      1.60320634535288      1.00950433839649
  H   4.58412723284300      0.03644327882321      0.93953123464773
  H   2.06682744680224     -2.76258354589823     -1.18227421484973
  H   -2.06787637722143      2.75391492562944     -0.86636588650356
  H   -4.31849614859095      1.13077403103081      0.34600099184250
  H   -2.22167351668671     -2.43753653820209      0.79140879847985
