28
Coordinates from ORCA-job ./opt_b97-3c_parallel
  N   -4.66426035367607     -0.88231838547224      0.17713085537465
  C   -3.38711567102261     -0.36060485810190      0.11956303234280
  C   -3.06777732647823      0.99751617602917     -0.06475506705482
  C   -1.67504442776465      1.09503409449691     -0.11464259615679
  C   -0.81286559345741      2.15822161638718     -0.30055373127384
  C   0.55956868317001      1.96425154431694     -0.26420171581357
  C   1.15991339357092      0.70548376450166     -0.09519891841638
  C   2.57148115605478      0.66872093578888      0.10045715667529
  N   3.21477229631059      1.87431573051400      0.28494618999397
  C   3.44193372536436     -0.43826295603753      0.06501717255000
  C   3.17913311002574     -1.77293377837247     -0.10833958848553
  C   1.94013440528305     -2.39953641650339     -0.20228473006214
  C   0.69871756285201     -1.81426265012264     -0.13062421949794
  C   0.28318404409358     -0.47430888385414     -0.04019386948484
  C   -1.11269801088900     -0.24914197397578      0.02960064604869
  C   -2.19985522068273     -1.12197383385278      0.16766748208143
  H   -4.74015019636315     -1.77447968526757      0.63640466427197
  H   -5.37177263726727     -0.24058920933035      0.49384019798526
  H   -3.77205202134482      1.81033777537557     -0.15644253944095
  H   -1.20118982482922      3.15607995987352     -0.46716909757831
  H   1.18084967627039      2.82743445153650     -0.44758261097663
  H   4.16807857175463      1.82279618459797      0.59690080493991
  H   2.69124007243753      2.60554798596272      0.73222565930170
  H   4.49109086408589     -0.18806804530830      0.18271073213768
  H   4.04765099223596     -2.42047660514100     -0.14092119306790
  H   1.95405791693604     -3.47624916309363     -0.31676603288389
  H   -0.12230655368321     -2.51643178918705     -0.18854135520050
  H   -2.17134536398700     -2.19019443306020      0.31947824129084
