34
Coordinates from ORCA-job ./opt_b97-3c_parallel
  N   -1.47882052282777     -4.26710702798574     -0.66977777842061
  C   -1.32366735469490     -3.12295544012917     -0.50952934493674
  C   -1.20967827611107     -1.73732302008205     -0.31534978798767
  C   -2.40960462745225     -0.99051126254743     -0.27849907381625
  N   -3.59886830288471     -1.59680720712687     -0.53434837171675
  C   -2.32004072602519      0.36621406993319      0.02683590314485
  C   -3.31363550507122      1.30203874557833      0.34077064020035
  C   -2.70914039195572      2.51112611483629      0.67448936794127
  C   -1.31773407079093      2.38223033315807      0.55074199641541
  N   -0.43545509963979      3.35009703645663      0.93079356890256
  C   -1.03281175107346      1.01193338360149      0.14236987848628
  C   0.15825099438253      0.31209967654475     -0.03393555202760
  C   1.38585313869179      0.99762712880618     -0.33249587898889
  C   1.27170619230901      2.19621419474162     -1.04579184080632
  N   1.23776979378939      3.21513425322715     -1.61756512756025
  C   2.72759981508573      0.63689898979470     -0.00983118948291
  N   3.68511425242131      1.61329451956012     -0.13433505051445
  C   3.16483900868196     -0.58908232279160      0.46774511975768
  C   2.47073041794417     -1.79565436750850      0.48766861605611
  N   3.17354903958285     -2.90282421286446      0.91244048220516
  C   1.13264130269344     -2.01875623179414      0.14585484555764
  C   0.07003191681194     -1.15095266692301     -0.06852866580893
  H   -3.64521088275876     -2.60078474151963     -0.49238224728553
  H   -4.44156432459055     -1.11688578351540     -0.28014228583784
  H   -4.38030989523169      1.13178835274631      0.33591020967585
  H   -3.21747368041391      3.41268408726671      0.97993470518700
  H   0.36541241396551      3.51772451980588      0.33993078396435
  H   -0.87307186949427      4.21119224046936      1.21650072465294
  H   4.63156603860117      1.30936215180627     -0.27411831813516
  H   3.44430145983554      2.45165911060875     -0.63516970078682
  H   4.20151538843769     -0.62792165262899      0.78222450860949
  H   2.77854843953929     -3.80287282313267      0.70431802960550
  H   4.17460379315840     -2.87433958176727      0.83385833289272
  H   0.85590606048682     -3.06558069962620      0.14103448235612
