35
Coordinates from ORCA-job ./opt_b97-3c_parallel
  N   3.54186908195270      3.85575280671078     -1.38937211334434
  C   3.13145370679961      2.84844570763052     -0.98594593107942
  C   2.64096812788826      1.60184111247489     -0.50637805423121
  C   3.60026408532958      0.63588463488508     -0.20940669052227
  C   3.42077324099540     -0.63807291762883      0.29570849703991
  C   4.60913782163712     -1.31115022849039      0.67796925192558
  N   5.55238315466766     -1.90612824639986      1.00513546756399
  C   2.20577161654305     -1.38981188460979      0.44689739792995
  N   2.33501272071383     -2.55924663374274      1.08543576694854
  C   0.89422848939674     -1.00586804482746     -0.01452379864020
  C   -0.07147528494532     -2.00080530209134     -0.26290281196598
  N   0.29116379845564     -3.33692052542290     -0.44001437932004
  C   -1.45554827360218     -1.68981492977506     -0.29396915905048
  C   -2.36244250749979     -2.72962759943329     -0.59836092050937
  N   -3.03044843672868     -3.64183702120391     -0.86516042270829
  C   -1.89895739404127     -0.40310823280857     -0.01491109354056
  C   -3.19156273148291      0.14435720786665      0.08667384101598
  C   -4.43941769829270     -0.47993563683239      0.01994606329673
  N   -5.52274927614557     -0.90382183656261     -0.01273414923432
  C   -3.03997108027097      1.53753501894922      0.30652154491373
  N   -4.02989911234902      2.41027416605125      0.49454208240895
  C   -1.64440484675786      1.85603004353563      0.32172397488881
  C   -1.19406389059207      3.14932412910721      0.58510848196432
  N   -0.89571630409494      4.25285946926284      0.81154408350016
  C   -0.92408634847319      0.65993358231533      0.12362844877623
  C   0.46131988697204      0.39762039728548     -0.02120516540983
  C   1.26820665617145      1.49897180378604     -0.30114202731755
  H   4.62977306330562      0.94319431936526     -0.33118151012647
  H   1.56345606812674     -3.21158970613792      1.09391714273970
  H   3.24334592690551     -2.89603744183946      1.35954677230692
  H   1.06784132113931     -3.47754072272789     -1.06763745758285
  H   -0.47887263295401     -3.93866977344644     -0.69238897700563
  H   -4.98731111815144      2.10560519792718      0.49987716190538
  H   -3.83966688990814      3.38629394665953      0.63649315075509
  H   0.73967941648266      2.42996491717246     -0.43590028059502
