29
Coordinates from ORCA-job ./opt_b97-3c_parallel
  N   5.22782606269200     -0.29732587621612      0.29815962814593
  C   4.07237752039242     -0.19188766341093      0.18020751082263
  C   2.68010077703256     -0.07408422348178      0.04348416895497
  C   1.92928005555344     -1.26560238146249      0.08474151321559
  N   2.61114007483077     -2.43878967429185      0.19786085037002
  C   0.53390695959664     -1.38207523138872     -0.01950004904984
  C   -0.47533406740377     -0.44389338316385     -0.09353750198860
  C   -0.26095378943433      1.02536885914184     -0.03643418440790
  C   -1.36703419070615      1.85714336548579      0.10981948460949
  C   -2.69194759638338      1.40206286897764      0.12650852426451
  N   -3.70793377263922      2.28768451861828      0.23726953007715
  C   -2.92804652296531      0.02516708982370     -0.03620613541806
  C   -4.07640991109619     -0.77001259382871     -0.10723187850959
  N   -3.76190753385397     -2.07976670335234     -0.27486705779153
  C   -2.41941097516473     -2.14600546204702     -0.30394825539613
  C   -1.82223904273023     -0.87269729148486     -0.16356954499420
  N   0.90928966173743      1.66815461410820     -0.14731155653242
  C   2.15126778982574      1.23723730830294     -0.18484561817155
  N   3.05492394507603      2.21720883069056     -0.45985081706107
  H   3.59316155849220     -2.43254781340252      0.41099499219106
  H   2.11031003756534     -3.27197011050380      0.44262653935347
  H   0.18711624639306     -2.40780283229630     -0.00844125635137
  H   -1.16510931544497      2.91810832332100      0.16133032611479
  H   -4.64132518497239      1.95806350565442      0.39612873623868
  H   -3.51673448714670      3.23548997813882      0.50481507349241
  H   -5.11246933049016     -0.46576137236001     -0.05524603370238
  H   -1.93039892383950     -3.09879315512981     -0.44710192632974
  H   2.71359807433214      3.15950031357935     -0.40770389651908
  H   4.04114067485122      2.06396414777852     -0.35117096112718
