33
Coordinates from ORCA-job ./opt_b97-3c_parallel
  N   3.23883947890938      1.96960365559553     -1.43102906575126
  C   2.58411480436724      1.19072785850577     -0.86299522109659
  C   1.88495480711410      0.12505153179998     -0.25967067377298
  C   2.67055757806381     -1.05154399688802     -0.07275638096485
  N   4.01575773251509     -0.93400562195560     -0.24629423909619
  C   2.20193416184675     -2.29952717691267      0.32078443807119
  C   0.87945813091745     -2.72892165071354      0.40130823113428
  N   0.68222162654469     -4.06392878515238      0.70033635322796
  N   -0.25923763555949     -2.08353984458082      0.17162348866952
  C   -0.47867700684060     -0.76301221723343      0.04718839728873
  C   0.51174102981590      0.32502574856570      0.05954645337895
  C   0.04334244761047      1.64149200706320      0.26006069203983
  C   0.91743528656287      2.67769947677401      0.64287935422002
  N   1.51056487854254      3.59708354313287      1.04087205836444
  C   -1.34141565743012      2.00777733274776      0.16677098062838
  N   -1.69743243267186      3.31103351640450      0.28964103366227
  C   -2.25157877019863      0.99596193238651     -0.09036949461499
  C   -3.65749942814289      0.99198547854078     -0.26877131338062
  C   -4.09781948190630     -0.31565112453584     -0.40070917866741
  C   -2.97732918352239     -1.17529089968687     -0.28859737347926
  N   -2.96556729934158     -2.51659179247466     -0.32185904141129
  C   -1.80741826208277     -0.36418004791446     -0.10817526952637
  H   4.55424781156441     -1.76569772305590     -0.40078140064550
  H   4.38871930879474     -0.08847361670180     -0.64322975561242
  H   2.96087646151935     -3.04666569334897      0.51929398575313
  H   1.43110701048363     -4.54177387864138      1.17008863166806
  H   -0.22859537174397     -4.26758455246737      1.07523878561988
  H   -1.01801943023538      3.96810284380729      0.63424589616948
  H   -2.65551940877459      3.52912222809174      0.48812802595308
  H   -4.29584981228161      1.86175028926218     -0.31396260774719
  H   -5.11515732765750     -0.63352658984493     -0.56628658247314
  H   -3.77107421073344     -3.03250921650549     -0.62487052915648
  H   -2.04902570444925     -2.94671218176359     -0.29996107055274
