30
Coordinates from ORCA-job ./opt_b97-3c_parallel
  N   -6.26503074957086      1.58592550882681      0.56033545444797
  C   -5.24560958435660      1.04533493749600      0.42414955327312
  C   -4.01358454670203      0.38881650071565      0.25698746788994
  C   -3.83830934603058     -1.01209982264716      0.10446307277843
  C   -2.46625176633743     -1.25777974835910     -0.02247644908775
  C   -1.74034355033804     -2.42138909442650     -0.25393054978005
  C   -0.36702213494229     -2.36835446475198     -0.34744460178831
  C   0.36787723968208     -1.17230807687504     -0.20168024596330
  C   1.76846154847686     -1.26426576494874     -0.07890007109781
  C   2.31862051354688     -2.56899232507260     -0.11800736730034
  N   2.83998356172087     -3.60818902467347     -0.13661425854723
  C   2.75072646345672     -0.24897768575245      0.17857358117577
  N   3.99178616445370     -0.66838544177319      0.49499847555794
  C   2.54182911293400      1.14132563581316      0.10224599143778
  C   3.66009789062081      1.96345564618761      0.32570838078493
  N   4.59149165623160      2.64067446355656      0.50217336375925
  C   1.33139857493533      1.79572771729415     -0.28139034007330
  N   1.41924952887064      3.09027196938715     -0.65717690708240
  N   0.09789330581468      1.33200732997230     -0.26222327105905
  C   -0.38784431095191      0.10766496674550     -0.11650914224600
  C   -1.77914106489606     -0.00188530697328      0.04682646471837
  C   -2.75595432879881      1.00719714176451      0.20920158694447
  H   -4.63125865225076     -1.74200995364166      0.08132091292810
  H   -2.24194593791435     -3.37616901115387     -0.34650499863411
  H   0.17474963048219     -3.29216897878264     -0.47961258444380
  H   4.21890240941768     -1.64612622221963      0.52808895993945
  H   4.74375064722587     -0.01157371330167      0.60532428201359
  H   2.28717748009012      3.59431179717717     -0.65537268481220
  H   0.56093831213322      3.59796650775150     -0.77055571804755
  H   -2.57100732630351      2.06425071346492      0.29268307001411
