25
Coordinates from ORCA-job ./opt_b97-3c_parallel
  N   2.63189178273851      1.71562168313745     -0.67206560147040
  C   2.11348898389477      0.55793645200742     -0.23488951968836
  C   3.05523290853483     -0.49135560504991     -0.08032547883293
  C   2.87429791971347     -1.82150869348893      0.17338810575253
  N   1.76590286772399     -2.57489768642015      0.21860283059323
  C   0.55225042477042     -2.09657503618115      0.09100557793310
  C   -0.00355657408700     -0.79260247624301      0.03283198809081
  C   0.70705710207479      0.47957153636288      0.04376792559095
  C   -0.07552424986953      1.65865416915185      0.17229811868993
  N   0.53293929427242      2.92964761854095      0.35862292668660
  N   -1.40177628616292      1.70901766573866      0.11540256872102
  C   -2.06961758527883      0.57575985150652     -0.02552603337252
  N   -3.40641242695416      0.46775442470529     -0.11104327600225
  C   -3.62594093216738     -0.86756849819920     -0.15031327042024
  C   -2.46239947713938     -1.64985282497424     -0.08805854387604
  C   -1.40784519881915     -0.73406672222470     -0.02449442260933
  H   3.61877208613161      1.79413065797411     -0.83474907210588
  H   2.05132069152734      2.55267704167080     -0.66179763939862
  H   4.09197077985439     -0.18509671168696     -0.17166766214617
  H   3.78585067974010     -2.39415237695854      0.31839212016719
  H   -0.20112793424003     -2.87620339542378      0.06036093798866
  H   1.05254781677930      2.97809621056241      1.22635972005745
  H   -0.20942354010994      3.61598662176413      0.38999227591496
  H   -4.63694506540649     -1.24370586493446     -0.22469925999971
  H   -2.42546163122112     -2.72682985023743     -0.10527927236394
