30
Coordinates from ORCA-job ./opt_b97-3c_parallel
  N   3.03927566084583      3.07342162126692      0.04901695541657
  C   2.44809642778385      2.07083231272392      0.02149450587628
  C   1.90468179218155      0.76545958148976      0.00325298431757
  C   2.86489169499659     -0.29153776315008      0.04539556643200
  N   4.17521531805858      0.07582042869736      0.05547075467693
  C   2.59875194686806     -1.65296847215924      0.03761271937211
  C   1.36447115737013     -2.30710386962263     -0.03246510875073
  N   1.41795853021167     -3.68754716314706     -0.05345438719155
  N   0.12480239983926     -1.83868890072431     -0.03594255642431
  C   -0.29555308735601     -0.55864717072768     -0.00751953490822
  C   0.49280552300986      0.69373862518548     -0.03116543021109
  N   -0.10015381937715      1.89526708118495     -0.07142403023280
  C   -1.42684536094454      2.05023250114827     -0.04382337247785
  N   -1.86462285121301      3.33360254943955     -0.04922835888585
  C   -2.27796368604527      0.94199633120235      0.03193857407745
  C   -3.65705820674594      0.70552546511226      0.12124738735214
  N   -3.95356549256409     -0.61256351771384      0.17716983001498
  C   -2.76928816409086     -1.26100992526914      0.12065634810668
  N   -2.66405588315477     -2.59410384648672      0.13838290790426
  C   -1.66668734344114     -0.34710997356750      0.03052779096141
  H   4.87056548777655     -0.60923913673563      0.28283760814019
  H   4.42249320948912      1.03777338755545      0.21157856810381
  H   3.46893428105090     -2.29775319388078      0.06603263718876
  H   0.57733432955058     -4.12346542242178     -0.39121545968891
  H   2.26203392380522     -4.10878983003510     -0.39961169216451
  H   -1.17749561191976      4.03318052348985     -0.27167952903201
  H   -2.81490028101487      3.52993167968833     -0.30242263644691
  H   -4.45453682800091      1.43404037235970      0.15910944957655
  H   -1.72869513391223     -2.96415630512892      0.22090043986688
  H   -3.47118405025712     -3.14741374897376      0.36510061433011
