28
Coordinates from ORCA-job ./opt_b97-3c_parallel
  N   5.48355230908787      1.56021604673923      0.30815152042841
  C   4.41585047501692      1.10655532344070      0.22830871876780
  C   3.12848481234594      0.55224187833339      0.13129570628354
  C   2.83930909625027     -0.83323580069926      0.01296614389839
  C   1.45605141742943     -0.96469178472271     -0.04119539677486
  C   0.61969561415999     -2.09634634170432     -0.13824625888751
  N   1.14047029580639     -3.34129458023269     -0.25377155775972
  C   -0.76418293314709     -1.91306941143271     -0.13123501566664
  C   -1.38399112020665     -0.66718996536320     -0.04921311008815
  N   -2.72085203225258     -0.72838257163555      0.05609452305352
  C   -3.64812818685961      0.20658364983225      0.04959991020784
  N   -4.92584406541190     -0.27304791691351      0.20746591864037
  C   -3.52284576667658      1.60055839859113     -0.16855143943304
  C   -2.34879775029605      2.29767679193571     -0.24465319123492
  C   -1.03478038778700      1.83959762023538     -0.16164158259027
  C   -0.53313784892932      0.55240451041538     -0.03620598013668
  C   0.86512768697815      0.34822954091395      0.03243127230231
  C   1.92415969818265      1.27077070196088      0.14117568774072
  H   3.58677380156322     -1.60937945443179     -0.02894349609359
  H   2.11130707313565     -3.48857351516846     -0.04950752066142
  H   0.54117655518643     -4.13740298122653     -0.13430469520988
  H   -1.41841635566391     -2.77338404915832     -0.15288691979351
  H   -4.98412732439451     -1.22624500544242      0.52187738337921
  H   -5.63329105916645      0.34693472100691      0.55841095945158
  H   -4.44365346999114      2.16281782309049     -0.26585201879247
  H   -2.44972644958175      3.36691564726835     -0.38950353577918
  H   -0.28633521950944      2.61723234982514     -0.22908479055509
  H   1.85619930223106      2.34117277784258      0.23889480850321
