29
Coordinates from ORCA-job ./opt_b97-3c_parallel
  N   -5.60148863888914      1.53469516070864      0.00679235932194
  C   -4.53733934473895      1.06452224526156      0.00263711008686
  C   -3.28183393104358      0.41372107702065     -0.00210563039464
  C   -2.15100446084187      1.22136186778323     -0.00059314634417
  C   -0.78862686997062      0.93127823654753     -0.00152725763796
  C   0.08243252620522      2.03641856464669      0.00263706926365
  C   1.45689794654093      1.90516010153062      0.00398321122657
  C   2.02539176393119      0.64279108059738      0.00211252606600
  C   3.36152002883683      0.22216473321299      0.00063656794865
  C   4.51314080389522      1.00697875176938     -0.01383141308884
  N   5.50314985493553      1.62202724017322     -0.03082900451715
  C   3.35293471767558     -1.21162337781350     -0.00952983858219
  N   4.47130294482847     -1.96829614903780      0.02789553450120
  C   2.02510727788872     -1.66722403875104     -0.01266375716520
  C   1.17758322546642     -0.55392137770101     -0.00665868766024
  C   -0.23116625297816     -0.41634528562887     -0.00734444109742
  C   -0.99764849976762     -1.59114186189914     -0.02227512782954
  N   -2.28416061780622     -1.87279838136026     -0.01958485960661
  C   -3.31219030960144     -1.01743291325434     -0.00456123750934
  N   -4.50945822050467     -1.62562477556689      0.00637466791636
  H   -2.37913248968657      2.28002362506006      0.00263241093055
  H   -0.35134260905251      3.02704664959775      0.00544832834837
  H   2.08781401098231      2.78420727842998      0.00824850271905
  H   4.41380629838501     -2.94408327759016     -0.19747475006400
  H   5.35776503045727     -1.52782402973795     -0.14729548119138
  H   1.74433491516153     -2.70774692389858     -0.00917274214452
  H   -0.40107248136234     -2.49718219942109     -0.03799153125479
  H   -5.37507239215900     -1.11593315725022      0.01723963544222
  H   -4.52118981698756     -2.62962447062887      0.00081360091658
