28
Coordinates from ORCA-job ./opt_b97-3c_parallel
  N   4.60710620104444     -0.41416665528244      0.09342032200038
  C   3.29998544437052     -0.05284753558990      0.07274537177036
  N   2.92664287977591      1.23443674444318     -0.07648236241684
  C   1.58332268247199      1.15204045369790     -0.08752204862247
  N   0.72122204045885      2.14372013944278     -0.26520243110829
  C   -0.57328547732577      1.83418529768474     -0.21708054634154
  N   -1.41687458985370      2.95554830587942     -0.35759543322685
  C   -1.10418531351978      0.53340864191200     -0.01254111011501
  C   -2.50908519488325      0.37816611379071      0.31962245693358
  N   -3.10930755018640      1.35604004561535      1.02734794166795
  N   -3.32810265605867     -0.61827144605765      0.00577817859103
  C   -2.98150636528097     -1.84028256419202     -0.36411994601547
  C   -1.78334016690443     -2.50406119620719     -0.28761878275395
  C   -0.51623838678054     -1.97927998477203      0.02717049149570
  N   0.47883974403575     -2.85279623092494      0.21498291437679
  C   -0.16852437304946     -0.57483686247784      0.05044775920405
  C   1.18100919891550     -0.22719091854052      0.06780893173443
  N   2.31028798454008     -0.98129534682150      0.16169770615550
  H   5.25638462739302      0.32413145713623      0.29974694783940
  H   4.81709717128081     -1.30995271780035      0.49568333188370
  H   -2.14570522539101      2.83096096355824     -1.04584309346275
  H   -0.84348455033545      3.75109571938268     -0.59937771925341
  H   -2.66134511154304      2.25850386064340      1.10329980076116
  H   -4.11143795689538      1.30605117231712      1.09084244088711
  H   -3.82109841934387     -2.43176587648528     -0.72048217222901
  H   -1.81850507716717     -3.56558369552279     -0.50324012762567
  H   0.30129046180789     -3.83371540073763      0.09301253229513
  H   1.44667555262417     -2.50060966419169      0.26014421927501
