29
Coordinates from ORCA-job ./opt_b97-3c_parallel
  N   -5.19620790160232      0.57391019923144      0.36787266530849
  C   -4.05025530830969      0.76095138659764      0.29842381231217
  C   -2.68114563592403      1.04947450050680      0.22440102731687
  C   -2.12589867081197      2.35426395182215      0.34735745606754
  C   -0.75288677903767      2.30085767021504      0.20960425549810
  C   -0.37755426490493      0.94126942712589      0.01586509719997
  C   -1.61308913340650      0.16008181342004      0.03470452379359
  C   -1.54451225872601     -1.23075884323904     -0.14152781339095
  C   -2.70221315039745     -2.05100762839209     -0.18935379726688
  N   -3.60940419812002     -2.77187851456632     -0.23946464402860
  C   -0.30799964973272     -1.84178274239980     -0.25583407849487
  C   0.90405495330823     -1.12319389944643     -0.21735538163026
  C   2.07913122431681     -1.91575616383120     -0.21951444592677
  C   3.37952432437978     -1.59746903827759      0.02542419847752
  C   3.87755098240726     -0.29583976587897      0.28171664941854
  N   5.12086409385017     -0.18913092974471      0.80851625164457
  N   3.30688963129874      0.85054871747891     -0.03969205105204
  C   2.06126267400275      1.09279618428998     -0.40629733210333
  N   1.89370465185491      2.25861271803385     -1.04536258396544
  C   0.85983379938311      0.30662783274500     -0.14702740471868
  H   -2.70928525577913      3.24214152382350      0.53319715487224
  H   -0.09167013350481      3.14075882885821      0.33934061050916
  H   -0.26882894219345     -2.91650544693610     -0.35222298416971
  H   1.89215223205619     -2.97331252447753     -0.36298409048100
  H   4.09398172449734     -2.40946665247800      0.06998300851940
  H   5.45427559427506      0.72782073388945      1.04661201358172
  H   5.55301678507637     -0.97554236366282      1.25533580918079
  H   2.70120632714062      2.82158351668659     -1.24350192351569
  H   0.99444698530445      2.52753235220686     -1.40286799205660
