28
Coordinates from ORCA-job ./opt_b97-3c_parallel
  N   5.50891761523336      0.74972470137856     -0.19969343866479
  C   4.36847582467890      0.53203214256179     -0.16297932763459
  C   2.98210494338248      0.24574565917312     -0.12692645379039
  C   2.57740148386993     -1.05240477755285     -0.53967268280156
  N   1.42716100249024     -1.63132132927570     -0.42699374090065
  C   0.21160170237237     -1.18087268194565     -0.04536210409450
  C   -0.73627480116159     -2.18156905598724      0.22454323172155
  C   -0.31074507291968     -3.52764781470591      0.32493341402182
  N   -0.03013123150329     -4.64888772003283      0.43023532266200
  C   -2.11256970894342     -1.89455237886352      0.29744195464602
  C   -2.53815791790832     -0.62392437090314      0.04189896019591
  C   -3.85272841117491     -0.10952200276733     -0.12877300546589
  C   -3.76956628258495      1.21188328994848     -0.48489677940785
  C   -2.39917882465786      1.60708228044265     -0.51410445468844
  N   -2.00844015041402      2.80930252710053     -0.95336966598778
  C   -1.59260016920921      0.45519904195310     -0.16261827674123
  C   -0.22398725219998      0.22325768144848     -0.01758716081354
  C   0.71825159371048      1.25810392827321      0.31555587333163
  C   0.19760771439852      2.43557509470651      0.89107630611932
  N   -0.23039133924732      3.41802404071621      1.34774831689938
  C   2.11631813014925      1.24579338656639      0.27673326732085
  H   3.35045349689813     -1.66800706919906     -0.99125712306102
  H   -2.81331146134331     -2.69918516922726      0.46873144494273
  H   -4.75985791578451     -0.68067237780100     -0.00859232971387
  H   -4.59331237648327      1.86831408946516     -0.71789961912932
  H   -2.72600666028359      3.48819922005439     -1.14411698845933
  H   -1.13114146084654      3.20683207846232     -0.66027733474488
  H   2.58417036108171      2.16759729261113      0.59587894823774
