28
Coordinates from ORCA-job ./opt_b97-3c_parallel
  N   2.82219390792926      2.78274424819731     -0.30999767114431
  C   2.46394794218987      1.67599681175304     -0.20409430636741
  C   2.08558643345761      0.34649772585203     -0.05577571755970
  C   3.00508269675232     -0.75019116376846     -0.09903374224755
  N   4.35046710181682     -0.63914391550518     -0.13383351072413
  N   2.40668046951177     -1.95196025069975     -0.06792429253479
  C   1.08595486864146     -1.69288668119174     -0.03152126303101
  N   0.13563261989226     -2.62382478797924     -0.03887277690197
  C   -1.11724396285136     -2.19945931882588      0.00523111396200
  C   -1.53977504943577     -0.85509267421966      0.07304021751767
  C   -2.95395320627273     -0.60194189781252      0.05479945956075
  N   -3.78824933119965     -1.60694809873885      0.40602024529349
  C   -3.55506305407407      0.55979138502458     -0.45210812122652
  C   -2.95400291678136      1.77687446610923     -0.69155523258320
  N   -1.80668143709753      2.25825562695295     -0.24871809769831
  C   -0.83641105260043      1.56463521016418      0.32203348469677
  N   -0.04235834378197      2.25212535309350      1.14711479056256
  C   -0.52247764853131      0.16125103869185      0.09039720028311
  C   0.80113600932422     -0.26152575016853     -0.00283385738754
  H   4.85865821072677     -1.46577062117728     -0.39480923230083
  H   4.75187107253622      0.24032148804256     -0.40755367670694
  H   -1.85870593510521     -2.97944572099478     -0.11835166504835
  H   -3.45527204445828     -2.39778426147725      0.92215622970694
  H   -4.77914874368135     -1.45412713400096      0.40473350475521
  H   -4.61167036797415      0.49839884171749     -0.68570260535796
  H   -3.54839567452827      2.50404209677485     -1.23700405548409
  H   -0.08992320691291      3.25683594813923      1.12689772881568
  H   0.79577535470335      1.83782825945135      1.51307464015410
