26
Coordinates from ORCA-job ./opt_b97-3c_parallel
  N   -0.95072666632811      4.39362527645019     -0.35493060630462
  C   -0.57816695150941      3.29720709626243     -0.25932034712120
  C   -0.08310217146134      1.97763101007389     -0.14621888739923
  C   1.30846128021392      1.81708879531776     -0.13999068059672
  C   1.82673555005765      0.56481734140634      0.00342423425567
  C   3.15119874373077      0.05652753866878      0.11829418446026
  N   4.30960597937546      0.72417920230078      0.09808351798403
  N   3.14497640099115     -1.29152423705132      0.29805565005647
  C   1.86912858558915     -1.68068218933116      0.27750797394158
  C   0.96176971184241     -0.59249511572620      0.09786179367398
  C   -0.42947233512014     -0.47420705426251      0.00878214885406
  C   -1.28112794714442     -1.63077840640225     -0.13094666404676
  C   -0.67389948779324     -2.87727451502776     -0.42435210248160
  N   -0.24725450239932     -3.92801108388759     -0.67926925498134
  C   -2.67434259036997     -1.76241366820842     -0.04053440137660
  N   -3.65641362701248     -0.91166810768753      0.20164295559242
  C   -3.46788656648336      0.40436331595830      0.28215481228086
  C   -2.34677307306439      1.19051635837363      0.12159711193687
  C   -0.97885777711464      0.87723421099041     -0.02156257562591
  H   1.93106107610139      2.69775993629004     -0.22765157577446
  H   5.16459524986593      0.19743887928083      0.12945078278439
  H   4.35856621398101      1.69782186739750     -0.13408299808153
  H   1.63566345342413     -2.72138609583765      0.41055877626526
  H   -3.02158291667057     -2.78121888957082     -0.18405385995123
  H   -4.38262774872524      0.95498701888483      0.48081401678385
  H   -2.56091941387634      2.24996492043754      0.16970702557147
