27
Coordinates from ORCA-job ./opt_b97-3c_parallel
  N   4.32818683585264     -1.69097407181080      0.53385533950416
  C   3.19861308808650     -1.45303153061572      0.40102069088598
  C   1.81751726935129     -1.19280868690114      0.24290259334686
  C   0.94704140553220     -2.28637242639928      0.27236404718819
  C   -0.38778026338002     -2.07341013577587      0.06318115739501
  C   -1.46991711770248     -2.95185796175612     -0.15086787109547
  N   -2.59007733969174     -2.29859096762190     -0.44618319705917
  C   -2.30725336165761     -0.96202987349797     -0.39680568274769
  N   -3.27803937697004     -0.10920357042819     -0.75562113496795
  C   -0.91490573198365     -0.73411821280356     -0.08367053026925
  C   -0.07883650662743      0.38008729254661      0.01142396984927
  C   -0.61944364863066      1.70816109520575      0.21638718726500
  C   -1.85332353803931      1.78974560529904      0.88770520281216
  N   -2.87983457915869      1.87274821900641      1.43457063009181
  C   -0.09634469199742      2.95772184466054     -0.13776478895001
  C   1.16216700898764      3.28846473363426     -0.58162649474725
  C   2.26722770939669      2.44129622006537     -0.59227328684546
  C   2.34820620446824      1.11187936062862     -0.25481061370219
  C   1.35794003991456      0.13889324935691      0.01548293758389
  H   1.34576710516060     -3.28121814175678      0.41349108814796
  H   -1.44637214674772     -4.03127776018218     -0.12062356564979
  H   -3.33199850834028      0.80632081391489     -0.33448743637797
  H   -4.16638199677775     -0.55533323177177     -0.92385700086196
  H   -0.78786978685096      3.78206373265758     -0.01252044056206
  H   1.32887095455308      4.32255235094803     -0.85069467217234
  H   3.20980105855813      2.89965406709817     -0.86665974318737
  H   3.35313178341050      0.71283495250715     -0.28121502257403
