32
Coordinates from ORCA-job ./opt_b97-3c_parallel
  N   5.49442869587691      0.51940826370402      0.09389579520996
  C   4.34485168992422      0.32484042306982      0.03217387415557
  C   2.96522785547153      0.08349819785802     -0.02801317355682
  C   2.55185177020799     -1.26657772199550     -0.07784303352031
  N   3.53487084715530     -2.21715623284149     -0.15742501190959
  C   1.24044092866232     -1.74502995830714     -0.09582945056472
  C   0.00404069813361     -1.10368122155972     -0.05562334492526
  C   -1.13847296103253     -1.92445691778442     -0.03246487608352
  C   -2.43779225622449     -1.43863294655075      0.02491687928462
  N   -3.52242480258776     -2.29995915391507      0.06461840346845
  C   -2.62711333295698     -0.05193322803263      0.00344601746965
  C   -3.77950466917856      0.75238439170969     -0.03626316112092
  N   -5.08416850362421      0.31160746702920     -0.10612887753297
  C   -3.36640616157565      2.11887667614776      0.01871102882055
  C   -1.99107769689240      2.15997168443235      0.05144304697221
  C   -1.48978144191125      0.82163996973517      0.03002115192333
  C   -0.17275689922211      0.36498275866430     -0.01008235684430
  N   0.78682464245191      1.30290815944589     -0.01009493262199
  C   2.09635172301469      1.22410382597072     -0.03540453168855
  N   2.70894588019006      2.44455897378459     -0.09482698469337
  H   4.48255156147777     -1.95225108109632      0.04983832995052
  H   3.29412294672123     -3.16048629170226      0.08422424499956
  H   1.17442487508512     -2.82663664002960     -0.14902974943972
  H   -0.98723440496769     -2.99753989544827     -0.02054788686771
  H   -4.28069781635403     -1.98151176396963      0.64849238193317
  H   -3.28548596348399     -3.25764844052815      0.26838486094488
  H   -5.22149593705456     -0.51268123954737     -0.67160494200539
  H   -5.75403228850236      1.02788235435319     -0.33555463123572
  H   -4.03486690495756      2.96684449030791      0.00464737993332
  H   -1.37499030212195      3.04290262010279      0.06830103173024
  H   3.68682752795545      2.53682078461207      0.11530929869720
  H   2.11551052022006      3.22932047188085      0.10460948061764
