32
Coordinates from ORCA-job ./opt_b97-3c_parallel
  N   6.09832918629589      0.84232457692448     -1.06705763425661
  C   5.03358804004905      0.49566494958268     -0.75651128784849
  C   3.73462895745274      0.06527727558037     -0.38867355963069
  C   3.45357718944116     -1.31093360760590     -0.49667524265319
  C   2.31353495209231     -1.99247212726383     -0.18057605039794
  C   1.00303661794883     -1.55011088826580      0.14896828042648
  N   0.13506730413361     -2.55233150601556      0.33745252248585
  C   -1.17828446639418     -2.31665237254928      0.38579232608330
  N   -1.98690476383682     -3.40019980525237      0.63708546222416
  C   -1.68608213498812     -1.05462045198344      0.11604982805148
  C   -2.98460363047603     -0.60683820491470     -0.19262644774616
  N   -4.10519804848651     -1.36131995525126     -0.28282555485879
  C   -2.92467720519207      0.79602768778250     -0.38621948173960
  C   -4.00073191739755      1.60647402012530     -0.74819360090336
  N   -4.90197929636104      2.27810710830739     -1.05405438456106
  C   -1.58954716281282      1.23511742011631     -0.20664779182911
  N   -1.20262670995045      2.49814729398729     -0.44016494128385
  C   -0.77626680040749      0.06728706841831      0.08687298592919
  C   0.58895341767291     -0.15301960726999      0.21736491744984
  C   1.54188718511043      0.90126396500474      0.52037225632170
  C   1.06180774705084      1.97814606459647      1.29035636636297
  N   0.64623850133794      2.87557942374777      1.90797379366804
  C   2.88237714448938      1.01192300665717      0.17128378777767
  H   4.27890580632477     -1.92146518040422     -0.84016420363283
  H   2.36234880370535     -3.06849067416081     -0.27584709972873
  H   -1.46554709996343     -4.22069811856125      0.90538324880131
  H   -2.78191337394899     -3.22546039335353      1.23071293762840
  H   -3.98522627223117     -2.33660130307834     -0.50265177247502
  H   -4.91218166514625     -0.93409464429109     -0.70759657494396
  H   -0.42798704568464      2.88713049889619      0.07704642381777
  H   -1.93565257834638      3.16076937230727     -0.64010034864741
  H   3.33202928541830      1.97149539198730      0.39179181510859
