26
Coordinates from ORCA-job ./opt_b97-3c_parallel
  N   -5.49718949282993     -0.27999535856703     -0.22465133438673
  C   -4.36113891000940     -0.03045930054550     -0.15724930992481
  C   -2.97452625279946      0.19769891615874     -0.06904406504023
  C   -2.52981776644945      1.51363770836412     -0.06354720045576
  C   -1.25466533423647      2.03090841874626      0.01826641994300
  C   -0.01146997254371      1.38275697938995      0.07181572630418
  N   1.04685784687490      2.22632793348581      0.12815469536570
  C   2.28818564966914      1.75138126425750      0.09944090807734
  C   2.56157334821005      0.40575327246100     -0.00389782532417
  C   3.72892583962809     -0.40703074840525     -0.05831185658986
  N   5.01928158305824     -0.03204628676082     -0.03133871204580
  N   3.40789481721464     -1.73218847938047     -0.10948656356514
  C   2.07215406788737     -1.79946483332464     -0.08884958818686
  C   1.46886612884918     -0.52001518611411     -0.03097726013836
  C   0.14278652011805     -0.08422246968940      0.03418479087450
  N   -0.80859984033632     -1.03028588270028      0.07854148884361
  C   -2.12102468995759     -0.96147905767287      0.06294590152670
  N   -2.74051673667331     -2.15593032879336      0.17766851341815
  H   -3.31814072458015      2.25277902828349     -0.13251043128183
  H   -1.17404139086215      3.10883350736275      0.02471236535714
  H   3.07461883572120      2.49853278374041      0.16254866651453
  H   5.71022592336689     -0.73838473916574     -0.21500985523947
  H   5.27836214346477      0.92261672695897     -0.19480418553397
  H   1.56676388112127     -2.75166756263470     -0.12093479829908
  H   -3.73954125654384     -2.24864318093787      0.15000606958792
  H   -2.16633170876205     -2.97722055501687      0.22423667449919
