29
Coordinates from ORCA-job ./opt_b97-3c_parallel
  N   5.24514563344483      1.63863004246048     -0.42882520622161
  C   4.30532774444477      0.96586144376995     -0.29460310614249
  C   3.14908037535676      0.19182059600943     -0.13442823664396
  C   3.07301468195409     -1.19903505588249      0.00578957100032
  C   1.72804629655081     -1.58879125799057      0.13425737038811
  C   1.32104274334222     -2.91940936578521      0.28245257326518
  N   0.97589627371996     -4.02566080258557      0.40435815828131
  C   0.91743743128992     -0.41040328104291      0.08105845198701
  C   1.82475535863148      0.69853536112743     -0.09126091310578
  C   1.33666014615211      1.98887335801517     -0.21222784218092
  C   -0.02055103422072      2.21347293346881     -0.11529197949572
  C   -0.94078470987103      1.16366941506706      0.06191603984945
  C   -2.32488447283712      1.52030714573612      0.28317236899494
  N   -2.57051907187814      2.74575972469396      0.79612876160481
  N   -3.42520640858564      0.86378470404413     -0.05062737948220
  C   -3.57805471628975     -0.42289690776257     -0.28197615989511
  N   -4.77848418740916     -0.78704989372810     -0.78521990391734
  C   -2.66392974648647     -1.46294493524061      0.04929263714746
  C   -1.32992469121181     -1.32781774631026      0.24209174911151
  C   -0.47691109732348     -0.19093498280361      0.12838593285947
  H   3.91187833942757     -1.87504568009372      0.01470856299515
  H   2.01651074806046      2.81373009565661     -0.38055308501330
  H   -0.38749134977281      3.22133009222728     -0.24211190679094
  H   -3.52959641583439      2.99583275201559      0.95901956979737
  H   -1.85760702592167      3.24336359243352      1.29467174707711
  H   -4.92787300101912     -1.71487965381563     -1.13395468133656
  H   -5.41766849040824     -0.06559974738137     -1.06713319976367
  H   -3.07153883963468     -2.46473723577048      0.10394848373095
  H   -0.81853276137069     -2.25669457753230      0.44306064059870
