33
Coordinates from ORCA-job ./opt_b97-3c_parallel
  N   -5.67439243646844     -1.73519413255337     -0.39074782173668
  C   -4.58654391817532     -1.33486147547774     -0.28156666315563
  C   -3.31342877923512     -0.76742616722210     -0.15560297833723
  C   -2.07701260653384     -1.41456384075576     -0.09746527195046
  C   -1.06322487439752     -0.43613044067403     -0.03081019648284
  C   -1.70005371987726      0.84885574256654     -0.01924230856689
  C   -0.92205865693378      1.99378963590070      0.17394637045724
  N   -1.49730716077721      3.23269435183305      0.30690289461159
  C   0.46670956968138      1.85461867637482      0.18548684506906
  C   1.13895453143479      0.63567798762671      0.05439405208622
  C   2.55690110039092      0.66791706040284     -0.06569276758399
  C   3.15517313582815      1.94501133108012     -0.07945441726966
  N   3.70095460069466      2.97441141758574     -0.08761124931458
  C   3.48804995107756     -0.40741906659611     -0.21025720623023
  N   4.78465707209395     -0.06969567501661     -0.47783549855086
  C   3.20875453442956     -1.76207792364421     -0.12939570490664
  C   1.97638810730753     -2.37346848803701      0.11963313287512
  N   1.99115555372226     -3.73776689920963      0.28640173235072
  N   0.75363355139187     -1.86685051369355      0.15510373288558
  C   0.33256009956799     -0.61073052661967      0.04380869212801
  C   -3.08524587774616      0.65032682885851     -0.12176982890128
  N   -4.06674165848725      1.60845491207601     -0.16085280709362
  H   -1.92190317566468     -2.47862816953345     -0.12481203769269
  H   -2.40479517595437      3.25020018791329      0.74444678404912
  H   -0.89086002873819      3.96455755107868      0.63806230903508
  H   1.05431861174552      2.75711720750412      0.27791046176900
  H   5.08654952601684      0.88083972604342     -0.35300472062903
  H   5.49209449031713     -0.76883506160207     -0.35091060376182
  H   4.05243585584426     -2.42939015388837     -0.26002826097957
  H   2.82660474557286     -4.17176382631103      0.63519996628970
  H   1.12555865378713     -4.12556987022421      0.61958242816267
  H   -3.85220718055475      2.42526589072382     -0.71171545800476
  H   -4.99048076166045      1.25502164869054     -0.36072166512065
