29
Coordinates from ORCA-job ./opt_b97-3c_parallel
  N   -4.20364431056296      1.98206945553440      0.36498381790709
  C   -3.31344943274501      1.23846721316005      0.25492873292208
  C   -2.23559494600366      0.34405552095406      0.11470542372214
  C   -2.57215976109344     -0.99892812133621     -0.23204023361707
  N   -3.78013855715539     -1.23353610473871     -0.78503876449617
  N   -1.86056288370335     -2.08625298810526      0.02501362488760
  C   -0.56977095996695     -2.14495847073707      0.28697141936989
  C   0.47159646699952     -1.22982988390836      0.11966354392498
  C   1.80629267856385     -1.78338895741963      0.08301575194335
  N   1.99364249148844     -3.16362576471552      0.13676185309975
  N   2.90387923392959     -1.06325132759920      0.02762670791459
  C   2.78582466251762      0.26638510331208     -0.08207199189092
  C   3.79074927460156      1.21180619405467     -0.18427745002816
  C   3.16844489718136      2.46875210266320     -0.35686556122160
  C   1.78363367620826      2.34706847703861     -0.31484964826615
  C   1.47959535434415      0.96432443550367     -0.14118848210937
  C   0.32690081181544      0.20740840748170      0.02824100834886
  C   -0.94077995721794      0.86858258605303      0.31294397207099
  N   -0.85737087414333      2.12923132903981      0.75060242312338
  H   -4.45851653485010     -0.50120360197027     -0.89370970003894
  H   -4.09913712256973     -2.18566338172950     -0.80132553475002
  H   -0.26735956235809     -3.12611786188629      0.63412198840979
  H   1.43230373075630     -3.70307733653278     -0.50196516078556
  H   2.97333348386002     -3.37542668503360      0.02166796075555
  H   4.84855133811460      1.00857922383206     -0.17053427181523
  H   3.69321762086494      3.39906070924071     -0.51932657158654
  H   1.10014796609156      3.14576508039888     -0.55119013653075
  H   0.04750372446054      2.51557878588450      0.97112993601132
  H   -1.67943122492741      2.64786669316111      1.00701939522539
