30
Coordinates from ORCA-job ./opt_b97-3c_parallel
  N   -5.75734505091014      0.26280924099462      0.28387387773601
  C   -4.60529638469031      0.10693930119019      0.21373767445497
  C   -3.22707407193817     -0.08925614744282      0.12817789429954
  C   -2.57563377094329     -1.33839628345693      0.07037484701971
  N   -3.17925311339272     -2.53153747271954      0.05750746982205
  C   -1.16066728890351     -1.09878472441038     -0.01249175915236
  C   -0.09892303044370     -1.92688151917472     -0.20101971899132
  C   1.20040126404173     -1.36966048107270     -0.26232495161114
  C   2.23114923880180     -2.27851568734858     -0.60243338189553
  N   2.98462170702384     -3.08058450769844     -0.97407236689362
  C   1.45107509818923      0.01076556175957     -0.07673417368424
  C   2.79475007793156      0.45701255160178      0.19820620534019
  C   3.70300917304353     -0.45866373748987      0.78323919536018
  N   4.47066916457743     -1.12694946942281      1.34597041700871
  C   3.32325149722277      1.73300284476924      0.01438107313377
  C   2.68033502311728      2.91127183330733     -0.30635399988871
  C   1.30249865291116      3.10382864162444     -0.35543774309289
  N   0.29101348947386      2.28125932572486     -0.18812683604545
  C   0.30717122825135      0.91399834640851     -0.07874499269210
  C   -0.94933278383411      0.32036574939753      0.01569991316065
  C   -2.23682558694817      0.93785585959924      0.07701588186532
  N   -2.44180551269657      2.24528104293497      0.08352615533884
  H   -4.17436389597263     -2.59968625307861      0.17790705910573
  H   -2.65010811331132     -3.37962823306253      0.13266753006269
  H   -0.20077003837476     -2.99653938108606     -0.32122319359845
  H   4.39232379675804      1.80295868261947      0.17314879686544
  H   3.29308963409621      3.79074924893979     -0.44703072524806
  H   0.98698964087357      4.12903211836179     -0.53832949483746
  H   -3.36731630769034      2.63788170497027      0.07630496399852
  H   -1.59986556076511      2.81015513665991     -0.02449780083872
