28
Coordinates from ORCA-job ./opt_b97-3c_parallel
  N   5.11704951989035     -0.62846183905555      0.15826641684083
  C   3.98399550950168     -0.88837692767130      0.11288039791277
  C   2.63310726503351     -1.25114615690819      0.05435853834866
  C   2.15044623313401     -2.59646942369265      0.02361494083682
  C   0.77224053625879     -2.60755634210762     -0.03576057241581
  C   0.32324250028527     -1.26364336356747     -0.05001324818546
  C   1.51330321682011     -0.41265912781846      0.01311528306496
  C   1.36330258146979      0.97632329824088      0.06673452095625
  C   2.47041524121909      1.84325231143353      0.21917864821225
  N   3.29788540664744      2.64730562584543      0.35257564877889
  C   0.08545190205258      1.56790485482614     -0.00577135879478
  N   -0.03670875866828      2.94184999432050      0.00208507439461
  C   -1.07483050903357      0.75372468772123     -0.13323028068221
  C   -2.27691169256158      1.39872282622130     -0.47876089425596
  N   -3.53775249569790      1.02955593680936     -0.40955598360881
  C   -3.94867411372466     -0.17795411950794     -0.00175041687908
  N   -5.19088369164862     -0.22511567500853      0.49632269929869
  N   -3.35039163052263     -1.38349782482394     -0.11938700536533
  C   -2.06176584759617     -1.56723232556781     -0.20813302729052
  C   -0.94962415259295     -0.69078899491502     -0.09200917398241
  H   2.79089347363240     -3.46388788603864      0.04526072525078
  H   0.16301880322835     -3.49532179327400     -0.05374441222769
  H   0.82498002260504      3.44928247105450      0.12779119921216
  H   -0.77871098259609      3.32206407571204      0.56315675404447
  H   -2.15747405726445      2.40559390986459     -0.86639842638427
  H   -5.60935949154503     -1.11620921140235      0.69199834782717
  H   -5.75017063674010      0.60830933242868      0.50584159922023
  H   -1.79629144148487     -2.60603809301876     -0.36843401742761
