26
Coordinates from ORCA-job ./opt_b97-3c_parallel
  N   -5.09391481693017      1.97928881501287     -0.18376422631457
  C   -4.13091997350802      1.33308635170479     -0.13833489114945
  C   -2.96334085772482      0.52695253326660     -0.08055512295967
  C   -3.13568591554834     -0.84778542314594     -0.33972374417332
  N   -2.30731727261429     -1.82897109156884     -0.12484353422310
  C   -1.02793339704126     -1.79008429193243      0.25484454939781
  N   -0.60539028651869     -2.91864995132500      0.83062620722009
  C   -0.05649569216054     -0.73936744835442      0.03178232864780
  C   -0.43915406646401      0.65483296904480      0.13185569624797
  C   -1.74741491576520      1.15462717435052      0.15394978973582
  C   0.57270625645872      1.64334003630693      0.19625508047902
  C   1.91694922613498      1.34925805681188      0.07893906966784
  C   2.87814394703265      2.39068969058026      0.13612336010386
  N   3.63450694775327      3.26761722971928      0.19013569342022
  C   2.30757227158827      0.01312393328469     -0.11707462715835
  N   3.53800529907584     -0.46576669305016     -0.26746400022055
  C   3.37238835584742     -1.81782056142112     -0.40316181537407
  C   2.05359518232176     -2.23208327686775     -0.30391505660125
  C   1.29379790584675     -1.04675425624227     -0.12411950219089
  H   -4.10382202371962     -1.14916580371516     -0.72645798666492
  H   -1.26291398291689     -3.66719496157993      0.96332699627317
  H   0.31933002649143     -2.99078086692122      1.21660932226081
  H   -1.81547037135592      2.22589735079258      0.29232410850171
  H   0.27425328648846      2.67428340543162      0.31084790847271
  H   4.23286114658024     -2.44751949392347     -0.57568075012675
  H   1.69921500544861     -3.23976110795899     -0.44066280307207
