32
Coordinates from ORCA-job ./opt_b97-3c_parallel
  N   -5.71076197633713     -0.55229647478675     -0.49034677267517
  C   -4.57936930877792     -0.70400321127226     -0.26628031984692
  C   -3.19430638706495     -0.83765391680381     -0.01592787371249
  C   -2.79404704146072     -2.01343160744974      0.62007547186022
  N   -1.59826591231973     -2.55709776055507      0.70724960247605
  C   -0.45940131274713     -2.01128766059567      0.31750558913793
  C   -0.07700137001880     -0.68123543566965      0.09033801973946
  C   -0.99641058602515      0.46072410439600      0.04031124552735
  C   -2.37083455906701      0.27835357782988     -0.36323769219278
  N   -2.95948356836011      1.23924612923197     -1.08694913927933
  C   -0.47034811001611      1.75909218261845      0.15528994425132
  N   -1.30858238749750      2.88224065734328      0.22255790580263
  C   0.92627335622676      1.98081453032808      0.16394486813372
  C   1.41432188194937      3.29442848329681      0.33180043799432
  N   1.79161853372387      4.38537424273666      0.46992923868572
  C   1.82588906328615      0.93049947643096     -0.00749285861546
  C   3.21367935341656      0.91501103637407     -0.08610506224107
  C   3.60888729650675     -0.42567222040531     -0.17278511939993
  N   4.86215122326116     -0.90344735367697     -0.25807480174423
  C   2.44119863652188     -1.27191647449735     -0.13169542863143
  C   2.55142181646456     -2.65615402876654     -0.23442609931121
  N   2.73977428269573     -3.80351368318113     -0.32967177436282
  C   1.31112355752213     -0.43736890577645     -0.04057430367512
  H   -3.59381325057427     -2.61792199042052      1.03650922562598
  H   0.33784191000501     -2.73950643585437      0.24981980311573
  H   -2.50285333844352      2.13651566070174     -1.17985613101732
  H   -3.94228132500233      1.18246929233473     -1.29792919151211
  H   -2.04564819268311      2.79631278731756      0.90650507155250
  H   -0.80622517073705      3.74531395736102      0.36939406865736
  H   3.86456766138897      1.77334205243576     -0.06840038036894
  H   5.63034655368627     -0.28451951155746     -0.43652992233442
  H   5.01646393597720     -1.88345801486825     -0.41887647613967
