28
Coordinates from ORCA-job ./opt_b97-3c_parallel
  N   -4.41190333419665      0.43838518282184      0.29503675770151
  C   -3.07952667559662      0.27308290838683      0.03296433255100
  C   -2.24404710309836      1.37336648059090      0.11939399312876
  C   -0.85093534228871      1.46964734748791      0.00673068031452
  N   -0.33664794782741      2.70367418639883     -0.01466462306128
  C   0.10678567667970      0.37375903161025     -0.02835120641886
  C   -0.28254353725560     -1.01656654886144     -0.04224978852967
  C   -1.57761065521090     -1.50354145019747     -0.33563520581357
  N   -2.78276174317668     -0.99511664368144     -0.31584312459369
  C   0.72596975413656     -2.03480510057130      0.07781403172306
  N   0.33361650161911     -3.38107653445480      0.14157115901415
  C   2.06874086244862     -1.71797025380999      0.08489420997611
  C   2.47311726116474     -0.39217755031677     -0.01051666406940
  C   3.71202047649599      0.25660910296840     -0.01660351995407
  C   3.41828257578347      1.62247759186051     -0.05129159878975
  N   2.09478250188245      1.88274727744625     -0.06577636579907
  C   1.47503185592049      0.65896618372907     -0.04326129054942
  H   -4.80257970195275      1.36290191820562      0.30164755781018
  H   -5.00705994644077     -0.29384866310707     -0.05113247407211
  H   -2.74641717261125      2.32476009486117      0.26476730088077
  H   -0.94608118376710      3.49960142715271      0.03839946747594
  H   0.69843696501627      2.80619341547884     -0.03986062622520
  H   -1.57820173961574     -2.53991000422624     -0.65752514842369
  H   -0.35373836187472     -3.57970394769962      0.85137578957298
  H   1.11910902922863     -4.00246531568992      0.24905909844033
  H   2.80352541350869     -2.50887032081941      0.18933179400428
  H   4.68936596564953     -0.19697513219773      0.00482147802700
  H   4.12698117457900      2.43843512623424     -0.06748780612083
