31
Coordinates from ORCA-job ./opt_b97-3c_parallel
  N   -4.44794402589439     -2.37514807239440     -0.29474253102044
  C   -3.63106720422456     -1.55205253572062     -0.18036002473617
  C   -2.65177485943161     -0.55132545829683     -0.04701215711792
  C   -3.08254514687194      0.77834051978501     -0.29658697924147
  N   -4.27139292883999      0.96146673142051     -0.90904813316062
  N   -2.49738557802864      1.90217759407433      0.09437183327900
  C   -1.23595576372554      2.09642153367288      0.39955414485775
  N   -0.98727346649751      3.29175183739404      0.97951799541833
  C   -0.09110373232378      1.25422607954799      0.11517264257363
  C   1.11572327529479      1.91365670248451     -0.12452629191357
  C   2.33696000063644      1.25227949077029     -0.27373606727518
  C   3.51014115038948      1.98812394718317     -0.56235435159120
  N   4.45330150283441      2.62337038849906     -0.79503524645843
  C   2.35112293349625     -0.13397387716753     -0.11215535264607
  N   3.36529218318700     -1.01087237025808     -0.16470714879329
  C   2.75166646655117     -2.19344624717926      0.05825904744957
  N   3.44796026834267     -3.34786723787450      0.14201486323207
  N   1.40673418561409     -2.15531277870129      0.24617660039432
  C   1.10867051209186     -0.83481620941615      0.13833232788343
  C   -0.13384027894133     -0.18108752164123      0.19268668069081
  C   -1.33938577477498     -0.98256611350381      0.28533536499171
  N   -1.17796271418670     -2.26658912409656      0.60546538936102
  H   -4.87847661966487      0.18762713683970     -1.11231810072464
  H   -4.66673639285087      1.88352641974156     -0.88573650903488
  H   -0.13403417095230      3.45011184120633      1.48030061498110
  H   -1.77467630974638      3.88318089605093      1.17814379149928
  H   1.10974536607557      2.98511269256948     -0.24952396762272
  H   2.93745465601848     -4.20518376803088      0.03462826153511
  H   4.38307861876221     -3.32995660788705     -0.22354057733033
  H   -1.95984966042754     -2.89799914541262      0.54726714367125
  H   -0.21795768201071     -2.64371257655909      0.60989778044811
