33
Coordinates from ORCA-job ./opt_b97-3c_parallel
  N   5.14428166646964      0.12848789361761     -0.93569661847990
  C   4.14658569204124     -0.32479463175484     -0.54701811119113
  C   2.90336696599709     -0.84499477315739     -0.11366459819819
  C   2.96237550386240     -2.02275834324191      0.64330135604441
  C   1.94286967538338     -2.87252265356835      0.98830275539580
  C   0.60369228059813     -2.77765847078662      0.61824380993406
  C   -0.11403140190428     -1.72330478118621      0.07710315182030
  C   -1.51788293582610     -1.96573228885522     -0.16404431201340
  N   -1.96478823011468     -3.25940714267851     -0.27364564771778
  C   -2.41448797007122     -0.90102869632429     -0.17878673104146
  C   -3.78499968124595     -1.14672668262221     -0.40137076792450
  N   -4.90839536125554     -1.38134966413736     -0.58741905156468
  C   -1.95562086139509      0.41730318683966      0.03864588288204
  C   -2.64870518348758      1.60475704128467      0.13713129559042
  C   -1.69883696208949      2.65227804073080      0.25033455390611
  N   -1.98478827012592      3.96393376556751      0.38683902749807
  C   -0.38890803258186      2.11437839756342      0.17698577139906
  C   0.74098662434535      2.88073150939236      0.44520572247912
  N   1.65710814759519      3.57447850619918      0.65072037398117
  C   -0.52033832991025      0.68620659622040      0.05102295388924
  C   0.38554575948252     -0.35462172205578     -0.05837061560959
  C   1.75516770045217     -0.09930626549453     -0.47911953282551
  N   1.93432907783364      0.94666441533882     -1.29206657958569
  H   3.96061124976059     -2.32456363600000      0.93322856343020
  H   2.22163080099508     -3.75633312530696      1.54587010417792
  H   0.00758387433380     -3.64611268571877      0.86674163456369
  H   -1.40113143768581     -3.88511325712129     -0.82229914978716
  H   -2.95110413503470     -3.37170822677604     -0.44477688798260
  H   -3.71995312893001      1.72375824041034      0.11706347306158
  H   -1.24071492211344      4.59448546916110      0.63372568595087
  H   -2.90284003290082      4.23218462186835      0.69066453671155
  H   2.85689691523755      1.29168433649612     -1.50082407271855
  H   1.16091245738479      1.54778801059580     -1.51320217707501
