31
Coordinates from ORCA-job ./opt_b97-3c_parallel
  N   5.26586684709409     -0.87431615331201     -0.46913385127027
  C   4.10749852445827     -0.90004496543799     -0.36197992119830
  C   2.70228573759330     -0.88042407340312     -0.20876030998545
  C   2.03006216239606     -2.07383645657885     -0.49888207113229
  C   0.76415492557608     -2.43748780732939     -0.14166540972582
  C   -0.20912759737722     -1.61604960626548      0.45104371150764
  N   -1.13707341828897     -2.20201685825919      1.21074064515390
  C   -0.34511459505226     -0.19274491842738      0.20357169198528
  C   0.76298390088750      0.72412212921853      0.17844824551675
  C   0.48753473188866      2.11936872952420      0.04238646501915
  N   1.54534966917393      3.07342871650132     -0.03036922019512
  C   -0.80745619979456      2.59506515855874     -0.02241425243131
  C   -1.88038193432116      1.72543972895852     -0.02471381781433
  N   -3.19061609961577      2.04119138560463     -0.19873878053085
  C   -3.82131823011918      0.86703565238393     -0.28443680117022
  C   -2.96214127769768     -0.24960033781825     -0.14992932995614
  C   -3.34828360736441     -1.57393377329752     -0.35456839261284
  N   -3.65315054100098     -2.68993911166730     -0.50545282825964
  C   -1.65374167982717      0.30833823892263      0.04605832282884
  C   2.14827429664310      0.30544385683487      0.34329178186072
  N   2.98880172219887      1.13213464430828      0.98073942119556
  H   2.64317157765448     -2.85002799333510     -0.93717110857118
  H   0.50796878743109     -3.48462861791322     -0.24405279602619
  H   -1.92579129018275     -1.67208190245751      1.53809488360974
  H   -1.26742189764261     -3.19905387394144      1.18187490813918
  H   2.13182712350890      2.92983723598465     -0.84335390780948
  H   1.17003444024877      4.00837711673060     -0.08425797022717
  H   -0.99324378785515      3.65506434875052     -0.14331165018182
  H   -4.88489847507579      0.81218411411446     -0.46472866031613
  H   3.97585029825212      0.92999686374058      0.97362716285569
  H   2.70439750451033      2.10157783820719      1.10042260654229
