34
Coordinates from ORCA-job ./opt_b97-3c_parallel
  N   3.55077815304624      3.82086091806357      0.81492868472769
  C   3.04305181450746      2.80243330311512      0.57641411655302
  C   2.48486093427491      1.53459978236220      0.28267618194485
  C   1.11445927987904      1.50504963938433      0.07673900381768
  C   0.19752800476875      0.47121201688029     -0.07750188607760
  C   0.50414136410323     -0.94553957251673     -0.01330688674239
  C   -0.53952167600954     -1.83902315849669      0.21268423391948
  C   -1.88802705417875     -1.45887123456609      0.27585576660197
  C   -2.85056818234645     -2.45829538102447      0.56083555982098
  N   -3.60062925926576     -3.31224798495562      0.79556857960553
  C   -2.24101624002525     -0.13630349083528      0.03357978349385
  C   -3.46943413985535      0.53352544475193     -0.03511406945457
  C   -4.77383609877691      0.05514495296913      0.09770867856604
  N   -5.89974689709631     -0.22808937186889      0.18910324479058
  C   -3.17593427409125      1.91226903545341     -0.28030494316838
  N   -4.11407131498936      2.85680279197377     -0.45722658914656
  C   -1.77677777419089      2.08967134194248     -0.34722617135289
  C   -1.17371422698898      0.85160887650318     -0.15868552119655
  C   1.80364036528655     -1.49995250506053     -0.28213459535790
  N   1.82893144934986     -2.80311568275634     -0.63861340749612
  C   3.07390039545852     -0.86890229575151     -0.19101257989138
  C   4.18443198869470     -1.69042132673001     -0.47911064862824
  N   5.10563155650198     -2.36409151640378     -0.70985467128038
  C   3.40935141371947      0.45613702147288      0.18673020464044
  N   4.70532218626900      0.73844487446313      0.40339185238749
  H   0.66499144402955      2.48615087102277      0.12914714428157
  H   -0.32662064244852     -2.87715843998535      0.41209022639627
  H   -3.86662009239509      3.82815210718351     -0.47229717995598
  H   -5.08140176064229      2.63211081245588     -0.30021175744062
  H   -1.29541086222842      3.02962470397004     -0.56295191242536
  H   2.69854995706258     -3.26532793660303     -0.84031002326837
  H   0.99967946551699     -3.23587811939170     -0.99763270706558
  H   5.00323293939721      1.68455080690303      0.56757182565777
  H   5.41677777315628      0.03520024496231      0.30999442663956
