28
Coordinates from ORCA-job ./opt_b97-3c_parallel
  N   -2.74139992957394     -2.91509922094432      0.15040561590363
  C   -2.38241539160169     -1.80599108893678      0.09175690800646
  C   -2.07604260391204     -0.44836271040693      0.02912902999816
  C   -3.11622787676160      0.53352714726199     -0.00876015742697
  N   -4.44127789202059      0.22951269042057     -0.04878099231599
  C   -2.54322314138600      1.80972394364758     -0.06833759465773
  C   -1.15621098670976      1.65307481425203     -0.06612977003247
  C   -0.12641877687414      2.57790290316402     -0.14475453385487
  C   1.18885272985923      2.16260285957435     -0.10328493143033
  C   1.56367475628624      0.81118975876912     -0.02240741709718
  C   2.95005273181112      0.51376217220858      0.10383602814103
  N   3.81492964087423      1.53773812196941      0.35942691035286
  C   3.57368337933334     -0.72998963145419     -0.13606139895303
  C   3.01160234479071     -1.96454249411450     -0.30546574321859
  N   1.75557889853761     -2.38403897945498     -0.11041429578163
  C   0.71912081570559     -1.60749334473781      0.08650057510919
  C   0.51136152024322     -0.20489515096792      0.00223076691012
  C   -0.82929313930714      0.23342995903414      0.00331108324445
  H   -5.09268930125006      0.94596148614143      0.21563405951565
  H   -4.71008842157424     -0.70209110063748      0.22064278244323
  H   -3.08013161135856      2.74333286771724     -0.12656952142664
  H   -0.35008440667753      3.63269613770369     -0.24332162035342
  H   1.94866011239122      2.92054094270795     -0.22093039057475
  H   3.47358125198594      2.35607170105296      0.82766198239545
  H   4.76719927131797      1.30144232379526      0.56991206062066
  H   4.65686261053029     -0.70383371700243     -0.19614687001824
  H   3.69801002140401     -2.76523582936377     -0.56526674580888
  H   -0.17617404546302     -2.17357303829930      0.31083452290950
