29
Coordinates from ORCA-job ./opt_b97-3c_parallel
  N   4.58486113615941      2.04000951838707     -0.01051090559036
  C   3.60695633528317      1.40857673388273      0.00647031821887
  C   2.48927417339826      0.57370402081168      0.03790650865346
  C   2.56034904386991     -0.85197013726980      0.12235075467554
  N   3.69990195910073     -1.55369016655615      0.17805598993916
  C   1.25211977976590     -1.39147154653728      0.12288058507916
  C   1.00321850198359     -2.74506022293361      0.32530572879448
  N   0.83184266125281     -3.89096300711944      0.47011733126315
  C   0.33269214536057     -0.28830106919546      0.05967468493088
  C   1.13414683089293      0.92973258624560      0.02559622472828
  N   0.62568407904639      2.15946204994200     -0.02522140846804
  C   -0.68957031871251      2.29369822933948     -0.03572820902319
  N   -1.14861694132384      3.58801478047749     -0.02788780205728
  C   -1.60627653928835      1.17955583812651     -0.05297439351760
  C   -2.97478072306088      1.44510734920543     -0.12939149439075
  N   -4.01500321354840      0.71259613004379      0.25003408601063
  C   -3.94970059028312     -0.57144935453924      0.56062600839411
  N   -3.11408010397032     -1.49969260899753      0.14821529441189
  C   -1.90422223382354     -1.28617559566339     -0.35029873820357
  N   -1.43568549603352     -2.22007152958281     -1.17015944921614
  C   -1.03513551613716     -0.15401651621754     -0.03180965982414
  H   3.67461849534082     -2.53978599176553      0.36786059367816
  H   4.57353221123084     -1.07671526582344      0.31328047288810
  H   -1.98365731886027      3.79466496760692      0.48918355135722
  H   -0.40819344735524      4.25466159052925      0.12096603354303
  H   -3.25606505251761      2.43353140852417     -0.47756480056003
  H   -4.77922035939310     -0.93987945760049      1.15634914025043
  H   -0.48711640488114     -2.19439439096912     -1.49972886474089
  H   -1.94507356329668     -3.08254915535084     -1.26429001452534
