27
Coordinates from ORCA-job ./opt_b97-3c_parallel
  N   4.94828157415775     -2.27874969707445      0.13139547295266
  C   3.98242417851289     -1.63211400453400      0.10913732366145
  C   2.82051161832310     -0.84191020479300      0.08033134959856
  C   2.79946311428958      0.58284337810575      0.02768418462650
  C   1.46967050307983      0.98190568913166      0.01561834132013
  C   0.86033401361826      2.25462625610708     -0.05125690398724
  N   1.59836530114087      3.38509036161450     -0.08311798425406
  C   -0.53512359080491      2.32740952348086     -0.04021445227041
  C   -1.37710989893495      1.22103629142116      0.03427070276730
  N   -2.68172467682685      1.51830956433317      0.12388855148475
  C   -3.69736474599623      0.67068034330378      0.18212987046311
  C   -3.77272487946170     -0.70329881305744      0.10942992592376
  C   -2.69043446644048     -1.58966296760923     -0.03509117954622
  N   -2.96716679412262     -2.91903821177769     -0.13743368384610
  N   -1.38730175789313     -1.32193771831883     -0.03922339560695
  C   -0.76117485469452     -0.15575881968263      0.02424194737708
  C   0.64392252770285     -0.19647578511195      0.06022491179838
  C   1.50479458129695     -1.31345309268429      0.09372420186226
  H   3.68245089838633      1.20221115525627      0.00915172277631
  H   1.15768196774049      4.26710741182278     -0.26814244980303
  H   2.58853215687074      3.33715569658724     -0.23203242571919
  H   -1.02292931857472      3.29240276565139     -0.04558686659841
  H   -4.65557443738497      1.17242277400343      0.29657728831682
  H   -4.76563043169271     -1.13390086741183      0.16633990620447
  H   -2.19825040274354     -3.52172758605391     -0.37068849034078
  H   -3.88957567525099     -3.22895874205326     -0.37947323808175
  H   1.20115849230269     -2.34474200535660      0.12918388772058
