25
Coordinates from ORCA-job ./opt_b97-3c_parallel
  N   -5.01214485197682      1.47003841059699      0.00380635944371
  C   -4.06031261048661      0.80716087711948      0.00208053083114
  C   -2.90525953630137     -0.02882554377247      0.00058143755266
  C   -3.15656981646083     -1.41629648575490     -0.00028783301735
  C   -2.23632650336240     -2.43447699437620     -0.00090530585985
  C   -0.84396213388665     -2.36755791899441     -0.00059824625874
  C   0.03508676121840     -1.28811836262586     -0.00018660488447
  C   1.41083451229537     -1.61135054488121      0.00030803172775
  C   2.40968961498989     -0.65294652081469      0.00041516401235
  C   3.77141087833402     -1.05200192228676      0.00121442784724
  N   4.88905042125091     -1.36251939769388      0.00191656443167
  C   2.06642907894386      0.70965124785127     -0.00015573425805
  C   2.76994331501622      1.90472164674497     -0.00025567539383
  C   1.77703293398666      2.91036697484807     -0.00089042633529
  N   0.52341514490438      2.42832557291219     -0.00102919696562
  C   0.66178844681870      1.07672119663091     -0.00060347920558
  C   -0.36482943602391      0.12609462794296     -0.00034722495005
  C   -1.68104440969431      0.61728800360145      0.00020449877423
  H   -4.19931603705628     -1.70428003614290     -0.00033994024603
  H   -2.64742955335772     -3.43567673331240     -0.00145862051772
  H   -0.35641815456788     -3.33528677530925     -0.00069665196533
  H   1.69184394959348     -2.65381667800292      0.00062438908106
  H   3.83887146423785      2.03893431787342      0.00005433269644
  H   1.94703565196356      3.97732115146338     -0.00116517307685
  H   -1.72121293817852      1.69951700088276      0.00052572183651
