31
Coordinates from ORCA-job ./opt_b97-3c_parallel
  N   -3.67044628176302      2.97897608726460      0.23853632921245
  C   -2.81516703248147      2.19865214948055      0.13578093389455
  C   -1.71072443354042      1.32849681108111      0.01916546381444
  C   -0.40654446442861      1.84778378835999      0.06632965168589
  N   -0.23665594830840      3.22431589482462      0.15132814842814
  C   0.73914165715013      0.99587054470274     -0.02884293846174
  C   1.95291200535932      1.66898264878164     -0.27593825389400
  C   3.25683115505743      1.27146726892521     -0.29894965820476
  C   3.77795862059412     -0.00051861794402      0.01569169282703
  N   5.14290879975355     -0.08935492685229      0.12253528248051
  C   3.03848408956704     -1.14613439917513      0.24759318624871
  C   1.65990956224278     -1.39643847983886      0.15331701736260
  N   1.30512581481031     -2.68597414717458      0.25509689649530
  C   0.56794807650698     -0.44807422259818      0.00478294663011
  C   -0.73975882411142     -0.93084335917792     -0.06385039899278
  N   -1.22212397535723     -2.21509431802348     -0.07826802716843
  C   -2.55876559880295     -2.04933292936421     -0.12233527848033
  N   -3.41912391961639     -3.09830728163195     -0.11369230203789
  N   -3.01492634671733     -0.77116671856084     -0.12829537335036
  C   -1.88408871636617     -0.05470241566304     -0.08850504548412
  H   -1.10174169805725      3.73655612975027      0.22835786330745
  H   0.41988169989164      3.52938535572988      0.85001815730075
  H   1.81742516806403      2.71088638189541     -0.53422520180790
  H   3.98387596663369      2.03307003242054     -0.55530297081398
  H   5.56729134814412     -0.99747332465618      0.06125280450335
  H   5.69090360724699      0.64967410625187     -0.27930746173903
  H   3.62853003916487     -2.03107978973033      0.46496410030363
  H   2.01189182884161     -3.39337388207298      0.33520546842008
  H   0.30983371056703     -2.94188317704817      0.17038381993731
  H   -4.35457209983516     -2.88903908628165     -0.41469632337648
  H   -3.05015937640812     -3.98278758968363     -0.41337578465522
