28
Coordinates from ORCA-job ./opt_b97-3c_parallel
  N   1.70033749671231      3.71482608391572      0.02445895102511
  C   1.11899182714017      2.70727253820749      0.00273094910714
  C   0.26458535398506      1.58533489178854     -0.02096166074410
  C   -1.13783275238882      1.83877469183384     -0.02444891601941
  N   -1.59275420074375      3.10898174876230     -0.06386156923658
  C   -1.97991320411648      0.72695612612065     -0.03283552362843
  C   -3.37162367933844      0.53031537195225     -0.04755180304267
  N   -3.71635342918830     -0.77246583415299     -0.04932391541329
  C   -2.54915871991630     -1.46184760856435     -0.03517127433858
  N   -2.48146274681733     -2.78977044371381     -0.03486849378023
  C   -1.41152842256773     -0.58440421463691     -0.01852701203587
  C   -0.05811562477823     -0.88073642271463     -0.02501672045341
  N   0.27860317846238     -2.19385282251853     -0.03794960172355
  C   1.50627885457460     -2.69197881230523     -0.03231393872825
  C   2.75309928287570     -2.10860843443209     -0.00225954464999
  C   3.02377907943830     -0.72423068567336      0.02780189340917
  N   4.32272779247029     -0.33876657239924      0.09621614066967
  N   2.17961305246946      0.30056456663512      0.01600916082127
  C   0.84685489607040      0.29152778053581     -0.00807601635799
  H   -0.95108352600786      3.87151081638243      0.07117862438571
  H   -2.56251485772024      3.29616197630239      0.10458728543882
  H   -4.14624984305191      1.28433213294265     -0.06555394111426
  H   -1.55141245260280     -3.19220897398303     -0.04901126315925
  H   -3.32030271680679     -3.34070557687073     -0.07143601267616
  H   1.51696953236319     -3.77957827223843     -0.05291957163335
  H   3.60001793229385     -2.78346358608689      0.01118281572880
  H   4.51427017983100      0.64233090095080     -0.00450495194986
  H   5.06768798346378     -0.99059628583784     -0.06038394630645
