29
Coordinates from ORCA-job ./opt_b97-3c_parallel
  N   -4.24120898692975     -1.50319024178003     -0.55717169268426
  C   -3.04749656550694     -0.93786734877344     -0.18240658940142
  C   -1.98221004282774     -1.80523610345659      0.06175118964378
  C   -0.64288232593651     -1.50358075267969      0.28485889258513
  N   0.17933909241467     -2.51458395339401      0.60983034499866
  C   -0.01711264771654     -0.19918113433113      0.11666934871212
  C   -0.72737816679075      1.04761166697236      0.00290355580910
  C   0.00959555429140      2.22108555875767     -0.27907680663611
  N   1.32167987042652      2.31376051238860     -0.42200552594394
  C   2.00967369762308      1.17708804298170     -0.24218096517891
  C   3.37899980080726      0.92827627406989     -0.28510889003965
  C   3.50870477115936     -0.45145801817579     -0.05122546029870
  N   4.67169704290674     -1.16551886358140      0.05790178247387
  N   2.31840322077215     -1.07849265855275      0.13534268285519
  C   1.37152177809475     -0.10635250606962      0.02730416527768
  C   -2.13674880745555      1.21270805229344      0.23604443969900
  N   -2.56175580141779      2.44351682291046      0.63978872483220
  N   -3.13108270034408      0.37125198932402      0.02471663324508
  H   -4.94203072777031     -0.84896945350239     -0.85922658876513
  H   -4.21473143681583     -2.37271427408897     -1.05791352527951
  H   -2.23472098513935     -2.85970805650320      0.07844540493475
  H   1.19453458021009     -2.34851444357128      0.54133015659956
  H   -0.17429790921441     -3.45445364965248      0.59042474256402
  H   -0.53731247474086      3.13795635770352     -0.46170467391401
  H   4.16574928896202      1.64272752294730     -0.45957989849152
  H   5.47069838419730     -0.78103461089375     -0.41500034502896
  H   4.56478084280729     -2.15769982321033     -0.07213436928660
  H   -3.54265471684358      2.51824765988273      0.84349806115418
  H   -1.93991060692262      3.03859932938506      1.15288011696430
