24
Coordinates from ORCA-job ./opt_b97-3c_parallel
  N   -4.35737929576045      0.76512706944908     -0.02461487051958
  C   -3.06373310684471      0.36132247965683     -0.01832391648767
  C   -2.79972714058078     -1.01986843823104     -0.02178837742881
  C   -1.57743926909657     -1.64302542006685     -0.01657338181208
  C   -0.27267217884842     -1.13297161257219     -0.00915399287635
  C   0.77874968320739     -2.07336463257317      0.00195775711709
  N   2.07477419314236     -1.79094177420618      0.01142763538879
  C   2.41473859153328     -0.50373317612496      0.01013588553536
  C   3.68976120512533      0.06364716838840      0.01782794432203
  C   3.52236520551431      1.45568662376288      0.01223554161311
  C   2.15836245475940      1.79319904660255      0.00050226380768
  C   1.42239258308407      0.60254846615424     -0.00188377287897
  C   0.05859128503936      0.27838251454453     -0.01338656752987
  C   -0.89068871769758      1.32923423587097     -0.03658009376039
  N   -2.19932909150813      1.39371505993624     -0.03356844341748
  H   -4.53512688973742      1.74828662903464      0.07477236099344
  H   -5.11075308830007      0.12208139146087      0.12822626958178
  H   -3.66751322585915     -1.66947481282485     -0.02936993720874
  H   -1.62785942710535     -2.72679948068238     -0.01579907830960
  H   0.52055359529824     -3.12756578725480      0.00335816966428
  H   4.61936144458312     -0.48065792394866      0.02684423841213
  H   4.32795439837382      2.17551060203016      0.01664704517761
  H   1.77488411631288      2.80118796542351     -0.00324746653981
  H   -0.43720845153492      2.31546753877020     -0.05628223004392
