29
Coordinates from ORCA-job ./opt_b97-3c_parallel
  N   4.02326524103781     -2.16044003375369      0.61851177465332
  C   3.10257220716322     -1.48054266159861      0.41630394485412
  C   1.95501277839024     -0.68989341801294      0.17334876947058
  C   0.70008928960216     -1.32758281335460      0.08783304135559
  N   0.64821591480272     -2.73815896977831      0.15726357203624
  C   -0.47373279743197     -0.57343212437299     -0.10904109920388
  C   -1.72038229998972     -1.22862764347185     -0.47051435544404
  N   -1.66325822238004     -2.35818209025302     -1.19696236383515
  N   -2.95082062038345     -0.85948503083619     -0.13559776049777
  C   -3.33056858463186      0.34421944604365      0.25286519502227
  N   -4.47699032843005      0.41617071821528      0.96103407826149
  N   -2.79613870162678      1.54736098893545     -0.05595683492089
  C   -1.52661497694702      1.72072605772964     -0.29943400731248
  C   -0.39786036655917      0.86580238204253     -0.16752454846307
  C   0.86061393054028      1.49586627212663     -0.14334024424055
  C   1.27400279897599      2.83420996333851     -0.19916178168285
  C   2.67292234257007      2.85366008464986     -0.09385365487126
  C   3.17588036499261      1.55006124942724      0.04560951341551
  C   2.08222192529460      0.68983356497014      0.02185782424692
  H   0.02330103433477     -3.06891899744077      0.87936114814110
  H   1.56031637720405     -3.14491480177347      0.30881202886331
  H   -2.51831196636948     -2.87736534004623     -1.29696461847642
  H   -0.78182533502611     -2.85228300696118     -1.25472475605705
  H   -4.91672033450090      1.31366445970129      1.05223913578300
  H   -5.03761847490429     -0.41073713366637      1.05496490254990
  H   -1.28433014425741      2.73632496190870     -0.59116486967216
  H   0.65081395457918      3.70823946907717     -0.29371742348830
  H   3.27622033540535      3.74965220502129     -0.11457000046173
  H   4.20880833514518      1.26535115563449      0.16049103597241
