30
Coordinates from ORCA-job ./opt_b97-3c_parallel
  N   -5.33136866296458     -1.96646310145872      0.25244341772898
  C   -4.27789820577415     -1.48537818662945      0.14366969854218
  C   -2.98721395795665     -0.92203664019988      0.01202246668077
  C   -1.93469315663795     -1.79707229066158     -0.33398930962308
  C   -0.59758471765015     -1.55407822093898     -0.40752925851780
  C   0.18560517998561     -0.37984749356592     -0.14150541187962
  C   -0.34839245125559      0.97499696524057     -0.09706682372414
  C   0.54686382474592      2.04411529825430     -0.17311904354667
  C   1.92950952006326      1.87980796504316     -0.18795837015476
  C   2.45494397961291      0.61981911154003     -0.08873379925524
  C   3.79734249587982      0.13403285288798     -0.00504330759369
  N   4.91004266862537      0.90563650211987     -0.00817314124334
  C   3.75418643505459     -1.25605182783671      0.16325868474146
  C   2.41624245478293     -1.66880495818585      0.16765586584159
  N   2.00729475494788     -2.95068133601885      0.34318333638943
  C   1.56767344126276     -0.51247393905283     -0.02526819758191
  C   -1.75361939653739      1.28322533700178      0.06251198617257
  C   -2.07570466900757      2.65833342154356      0.21012919984914
  N   -2.35207009936597      3.78162882649113      0.32736697448930
  C   -2.86605839852799      0.45633122713071      0.16433619770766
  H   -2.23996016862611     -2.80656022473655     -0.58140366592913
  H   -0.02407178907080     -2.38391905949615     -0.79398968381667
  H   0.15279456778722      3.04779148738889     -0.20415873305284
  H   2.55833256100985      2.76028748728438     -0.24420554189539
  H   5.79988259740252      0.46661461927339     -0.16143955155489
  H   4.84099245058156      1.84673442761469     -0.35078547161464
  H   4.60713270950892     -1.90201967856600      0.30345732471340
  H   1.06380939374171     -3.09521647638051      0.66480185262365
  H   2.67687629140991     -3.58854394548507      0.73996273007329
  H   -3.79308286832594      0.97643610469778      0.36597139792900
