23
Coordinates from ORCA-job ./opt_b97-3c_parallel
  N   -5.30463910758276      0.62093738526129      0.64140445090725
  C   -4.21130212668829      0.26727670759809      0.47594919626829
  C   -2.88949551843237     -0.17356787983810      0.27737013166514
  C   -2.51387004794626     -1.49037527807739     -0.08350950582055
  C   -1.12090264851325     -1.52547635124361     -0.15136762612488
  C   -0.22827836843150     -2.51445883830915     -0.54293709880034
  N   1.08769579165175     -2.38138049783317     -0.43338157564342
  C   1.58986952263601     -1.21225278397305     -0.02006698769609
  N   2.82760508684589     -1.25886591017408      0.45921707447845
  C   3.69268508615578     -0.29890838264696      0.64900626253272
  N   3.78365435126652      0.89396397970521      0.05776981207782
  C   2.73436678789029      1.55226678436759     -0.38157695350174
  C   1.35744572146044      1.27596109857026     -0.22432948258912
  C   0.52385584900291      2.38899307512127     -0.49947997917371
  N   -0.11761414776572      3.33099601902904     -0.72170680840731
  C   0.75641693072307      0.02235540686193      0.04465683699776
  C   -0.61705970272251     -0.19994196519326      0.15125805233077
  C   -1.73840196601891      0.62204328597887      0.40084527522218
  H   -3.19328236356215     -2.30397901234623     -0.27737078212064
  H   -0.58173760084183     -3.46625913245537     -0.92492829135236
  H   4.52517942630682     -0.54778937204803      1.29924390341864
  H   2.96333735970899      2.49363280163834     -0.87044402699101
  H   -1.74129911014153      1.66365354940838      0.66634086232235
