27
Coordinates from ORCA-job ./opt_b97-3c_parallel
  N   4.98327085509583     -0.73856826698029      0.04519122105586
  C   3.97798073262542     -0.15055547387166      0.05160474256075
  C   2.75431444703793      0.52514665887237      0.05535034376186
  C   2.54738901594818      1.93373254557879      0.07960413052667
  C   1.19131694536058      2.20077635628071      0.05707770437950
  C   0.48856760674176      0.96493751301185      0.02449670829039
  C   1.48343403516491     -0.08340518830900      0.02481697862082
  C   1.10460686155284     -1.40946111693507     -0.07694153641410
  C   -0.23364198862904     -1.76876077911440     -0.09754498048423
  N   -0.58575314726177     -3.12463920212419     -0.14550755558558
  C   -1.25591404402892     -0.77802355524547      0.01198350640787
  C   -2.55530937581575     -1.23829463593183      0.24024537957836
  C   -3.78768463670170     -0.59998425712246      0.28468567450431
  C   -4.08147523826979      0.72765774301372      0.04033418936978
  C   -3.17139859721488      1.75113375666068     -0.19858918653300
  C   -1.79321320994978      1.70181079949276     -0.19521079011280
  C   -0.87499887758983      0.64678938202805     -0.03917985155281
  H   3.33793450147264      2.66583758872797      0.11773859153736
  H   0.76076829714433      3.18840021167719      0.09136248286950
  H   1.86647595991287     -2.17777594256412     -0.14760402519820
  H   0.21666112834552     -3.72773968987627     -0.23097899585831
  H   -1.25336817033847     -3.35148311476601     -0.86688843939509
  H   -2.60839581831198     -2.29977547921128      0.44571439530377
  H   -4.62997895783222     -1.24165607157456      0.51271767769143
  H   -5.12835757395971      1.00542641662779      0.05489288027584
  H   -3.59733491736182      2.73241737311679     -0.36905348592607
  H   -1.32057632093718      2.66352786343792     -0.34437536647399
