28
Coordinates from ORCA-job ./opt_b97-3c_parallel
  N   3.04654399209083      2.61483384616369      0.17660901753651
  C   2.39840199581236      1.39753796473728      0.10517049314440
  C   3.17765720419344      0.25534119301781      0.08910969819652
  C   2.73354906673634     -1.06663276245431     -0.07330100743983
  N   3.72186436616661     -2.02773250996370     -0.17279081133666
  N   1.51580223602506     -1.57711183902028     -0.07195641482652
  C   0.31602061450592     -0.98302600905788      0.00217423543353
  C   -0.75754464663719     -1.86552451375155      0.11971759814910
  C   -2.09899916057731     -1.47283709090164      0.10916820937444
  N   -3.08126002182582     -2.40659063697753      0.19471035699129
  C   -2.39811628364654     -0.10929554404486     -0.05772032579427
  C   -3.58169737990155      0.62873736995882     -0.15265200943204
  N   -3.32589908945575      1.95181148784569     -0.31200694364133
  C   -1.98613201656474      2.08301862607457     -0.31427422047664
  C   -1.33260986987456      0.84192750519706     -0.16253348564359
  C   0.03426392983064      0.47610213164609     -0.07096691049412
  C   0.99572167421041      1.46293949949152      0.00045874805601
  H   3.98770424541839      2.60675609648934      0.52866902414960
  H   2.50720036198259      3.39338323452133      0.51234448392176
  H   4.24906145006521      0.39236985642015      0.18359872883499
  H   4.59134419028870     -1.75690191544793     -0.59769934965255
  H   3.37494208321733     -2.92647196683343     -0.46269247952710
  H   -0.50649418747704     -2.91541736437116      0.18442723068883
  H   -4.01707569527847     -2.10385536481483      0.39197045942247
  H   -2.84610928785450     -3.32758772092582      0.51732346731604
  H   -4.60255397900405      0.27354920566912     -0.12862762551391
  H   -1.54152399580177      3.05930443759466     -0.44413319887076
  H   0.60237840665545      2.47222107073778     -0.00566092906615
