25
Coordinates from ORCA-job ./opt_b97-3c_parallel
  N   -4.26531134420083     -0.80588483224323     -0.11064363121026
  C   -3.02374281468913     -0.20276761457523     -0.04412485554150
  C   -2.98792715163378      1.19230981737034     -0.03802145710591
  C   -1.86861762501247      2.00377951769513     -0.02718508278410
  C   -0.52533555510920      1.68866682972015     -0.01368155463946
  C   0.14388110875469      0.45463501925045     -0.01163998538161
  C   -0.53608676949613     -0.85158216709223     -0.02989077044072
  C   0.26053987576021     -2.02892724519432     -0.03044384505372
  C   1.63293138729373     -2.00798719709454     -0.01352069933514
  C   2.30550187394970     -0.78928068919950      0.00657892685547
  C   3.64702719247992     -0.40946757167932      0.02801812668491
  N   3.77664365806836      0.94630202142417      0.04216635312263
  C   2.53666477732125      1.45670791465824      0.02979034401975
  C   1.54850694668176      0.44072327842031      0.00701458182824
  C   -1.91359683071336     -1.05791107736603     -0.04640315488684
  H   -4.32383564241343     -1.76234008047713      0.19201582642707
  H   -5.05225914689159     -0.25293454552526      0.18039440016518
  H   -3.94658770307188      1.69805832354372     -0.04925469612510
  H   -2.08195927723043      3.06636747444301     -0.02263293245670
  H   0.13115187959277      2.54823822316056     -0.00263721305282
  H   -0.25279877693500     -2.98089401340982     -0.04629651154640
  H   2.18298026844468     -2.94145645721504     -0.01558152157054
  H   4.51808369562652     -1.04756381470295      0.03397974069135
  H   2.39434456461389      2.52751317488266      0.03818911852987
  H   -2.18420206759028     -2.10907630779418     -0.06701123439366
