28
Coordinates from ORCA-job ./opt_b97-3c_parallel
  N   -5.93874009280111     -0.23671079605150      0.48658689714661
  C   -4.83096182148843      0.07500828241842      0.31440120496566
  C   -3.47337951859649      0.35901776592380      0.12303801673083
  C   -2.86497840132346      1.60948966005578     -0.05353086650112
  C   -1.48076721063929      1.41070651531540     -0.14036131186957
  C   -0.41815339990003      2.27692992303276     -0.31252516704424
  N   0.84417005792643      1.87096246706872     -0.30927344973683
  C   1.14326833472806      0.56071791675301     -0.18792989371831
  C   2.52544386608063      0.31724672628655     -0.03243419376921
  C   3.33998748552931      1.47385351221610      0.04963103181102
  N   4.14687810617337      2.30517915033551      0.15414206250157
  C   3.23138696592228     -0.92325863991885      0.12962218262262
  N   4.51112920409535     -0.86329007424674      0.54461355491739
  N   2.81751618078062     -2.16455346680456     -0.12922582887740
  C   1.57793709042944     -2.51727738726130     -0.42430849015852
  C   0.37483237436259     -1.84022213331254     -0.39567212271108
  C   0.10400926031609     -0.47723840844883     -0.17587276003185
  C   -1.20316854984364     -0.00068614748356     -0.04631372278478
  C   -2.46053151973660     -0.64952501143541      0.13860566115718
  N   -2.71261794586237     -1.96590506542590      0.30790867824967
  H   -3.38369604920645      2.55291532680778     -0.09683121376604
  H   -0.57553290805110      3.34240932158433     -0.44182506610786
  H   5.04000302802722     -1.71616771428566      0.51795811048751
  H   4.99105460723522      0.01089114903934      0.66635293535582
  H   1.49945108996985     -3.56527897785664     -0.70182888527165
  H   -0.47349837561199     -2.45501084964851     -0.66185930397812
  H   -1.97651391436536     -2.55696168204690      0.65323492718164
  H   -3.63879697255099     -2.22127113051058      0.61258664519816
