31
Coordinates from ORCA-job ./opt_b97-3c_parallel
  N   -0.15043353316904     -4.00327784439066      0.49139716828298
  C   -0.23138910941573     -2.85391362733593      0.32565086884175
  C   -0.48564441084225     -1.47966240549835      0.15849921762879
  C   -1.83814799425200     -1.04682322978034      0.17548817696802
  N   -2.84099941567535     -1.94496154510582      0.37304220698865
  C   -2.09673537383920      0.29887268898544     -0.07310023385146
  C   -3.31043768829248      1.01349238762850     -0.17972241776440
  N   -4.58113656322309      0.45500641557109     -0.15449342567794
  C   -2.99559100019472      2.38599135879828     -0.29361280637174
  C   -1.61345913681211      2.52651720220540     -0.27862384733380
  C   -1.01894686738780      1.24632952064801     -0.15545644341925
  C   0.33063701985254      0.85916036258045     -0.07113192653434
  C   1.33847935933224      1.80307337976226      0.08431652229120
  C   2.72812392029484      1.63847887817972      0.18903920860877
  N   3.45773578039858      2.76780364578144      0.46233227891846
  N   3.48514004212856      0.56070314305767      0.00170936742206
  C   2.99473698815049     -0.64247729682910     -0.29867141692980
  N   3.92753867601935     -1.52624648538676     -0.73749396431599
  N   1.77768652473728     -1.18202095795617     -0.19995623252255
  C   0.60194981779423     -0.59513851679700     -0.04330325908815
  H   -2.57834472518559     -2.86123950144018      0.70030861229645
  H   -3.69961800602645     -1.58553803966341      0.75692236482206
  H   -4.68275984715250     -0.35631461957333     -0.74789882923923
  H   -5.31357680473329      1.11892893564270     -0.35155422700140
  H   -3.71501883430805      3.18183479658460     -0.41536085499825
  H   -1.09064465323927      3.46267518865471     -0.39639952662463
  H   0.99945383080428      2.82591073477406      0.18609280337234
  H   4.41719969693139      2.60311174966963      0.71221451772641
  H   3.00642837061792      3.52912511635026      0.93564709317150
  H   3.67749256965088     -2.49824836941637     -0.73952684493120
  H   4.89389900772768     -1.27170805379723     -0.65067722423516
