29
Coordinates from ORCA-job ./opt_b97-3c_parallel
  N   -5.59350371500964      0.52421513053392     -0.33051336322391
  C   -4.44127450539396      0.43500360916774     -0.22666477649482
  C   -3.03013656728234      0.32333944823583     -0.10242673180184
  C   -2.52861023430109     -0.90890724472466      0.31394505870980
  C   -1.21435741019004     -1.33915614105704      0.37260442343280
  C   -1.07814035295442     -2.62597123782958      0.96645489598428
  N   -1.02513036464616     -3.63618743763072      1.53599809707616
  C   0.00005544706701     -0.66973207114175     -0.01025338914071
  C   1.11918706455172     -1.45480527913311     -0.31805150180116
  C   1.00179762385625     -2.79954901611093     -0.72690406356981
  N   1.06127507252056     -3.87921366858007     -1.15403233968502
  C   2.45566179587196     -0.93235321764274     -0.29824565388176
  N   3.48226622440654     -1.72016154804737     -0.62207564108734
  C   2.61101269865963      0.39593856077383      0.10271185581976
  C   3.72045474722991      1.19302085435868      0.37618412358057
  N   3.35068299871236      2.45520128430520      0.71925623987844
  C   2.01969882988969      2.51074776526740      0.63430902938584
  C   1.46068593098828      1.25025707889541      0.26116138287346
  C   0.15673462572127      0.78851223278386      0.05404730040130
  C   -0.91638105695483      1.69255559141875     -0.22016559313131
  C   -0.58222441517393      3.04760061372879     -0.50362539998063
  N   -0.40444336344089      4.16483562566842     -0.76180475149950
  C   -2.28311366914108      1.47001108482765     -0.35467597674855
  H   -3.26579171317772     -1.64013386120827      0.61456316868640
  H   3.33950465600613     -2.68116159179440     -0.88566291438188
  H   4.42101129232566     -1.36775489485235     -0.62703286021981
  H   4.76551990093832      0.92020783342077      0.36596080636489
  H   1.49988123249549      3.42011859431425      0.87773897049303
  H   -2.85570216478430      2.33649340172877     -0.65397441453681
