29
Coordinates from ORCA-job ./opt_b97-3c_parallel
  N   -0.78588806402167     -3.85373180709764     -0.14658078183456
  C   -0.44398758067545     -2.74169631076389     -0.08046567692100
  C   0.04121697049100     -1.42501357780047     -0.01110282394607
  C   1.44658062003579     -1.26337627233573     -0.02370491522114
  N   2.27637483006749     -2.34178064843151     -0.06878095802311
  C   1.95074820907377      0.03382324321306      0.04182212373773
  C   3.24486125219094      0.56962192382298      0.07596632938884
  N   4.44512771691630     -0.10012331050291      0.14906774075537
  N   3.21884583128779      1.93257535168215      0.00460300205618
  C   1.93138105501062      2.28694203003140     -0.04717276310676
  C   1.06510566060617      1.16388504027521     -0.01266452414422
  C   -0.32910787865888      1.03885376162795     -0.01530648429182
  C   -1.13433681406614      2.18899957797980     -0.06887824870753
  C   -2.50437133078228      2.35531187793009     -0.06477222025713
  N   -3.52634568666229      1.51147678541577      0.00248808438122
  C   -3.38501225818380      0.18715171690563      0.08620270815617
  N   -4.57247339800131     -0.47034734699008      0.20626106919207
  C   -2.22753975258468     -0.61961521901355      0.08970651639586
  C   -0.87385831496285     -0.32192737865681      0.02705078211927
  H   3.18396823738034     -2.19173190955722     -0.47715420978760
  H   1.86367285450526     -3.23439201555246     -0.28836153404753
  H   5.21994364490835      0.53387776927577      0.27613118982265
  H   4.47155825402015     -0.85478566894338      0.81800036784371
  H   1.66204501234868      3.33098933359104     -0.09599341089894
  H   -0.59002854003086      3.12200509217225     -0.12626105045623
  H   -2.82697490633540      3.39127186916761     -0.12789025184074
  H   -4.62798500391014     -1.45954116025310      0.05061223019337
  H   -5.40030534057261      0.07386970327216      0.04136089021009
  H   -2.44729824439434     -1.67828527566415      0.15310002173174
