22
Coordinates from ORCA-job ./opt_b97-3c_parallel
  N   3.78416900046996      2.33563714233183     -0.08749699820332
  C   2.82544831924063      1.68387959258500     -0.06829252100386
  C   1.62214052746641      0.93403604559073     -0.04445879559070
  C   0.39827657590402      1.59820352910123      0.03823343629193
  C   -0.82596819305948      0.92071735211897      0.04077368942440
  C   -1.98633144370124      1.71337293534026      0.15560605645298
  N   -3.25537263111168      1.43626266451007     -0.07221260259701
  C   -3.74865005381583      0.22444003290365     -0.28437254237958
  N   -3.28375303130880     -0.96496694506333      0.06890008957511
  C   -2.02747002267632     -1.27245449295528      0.30237105636344
  C   -0.84466838921799     -0.54152403458759      0.04740295121546
  C   0.38083910844474     -1.20719953115136     -0.01551809524225
  C   0.77689277172240     -2.55584232259881     -0.03066727161844
  C   2.16978220867958     -2.53348121734077     -0.10314244893246
  N   2.69861737975506     -1.27792170701150     -0.12890655089043
  C   1.64043671867398     -0.46318965912956     -0.08582755666782
  H   0.39581871330427      2.67679060733233      0.09043763181977
  H   -1.80695436082771      2.75801057429819      0.39556377552684
  H   -4.73617070968345      0.20879642610137     -0.73385192061177
  H   -1.88090449775209     -2.27535586927034      0.69168784832302
  H   0.15083317564092     -3.43258565532413     -0.03393539997090
  H   2.82442000795197     -3.39146579848024     -0.14651786178453
