32
Coordinates from ORCA-job ./opt_b97-3c_parallel
  N   -5.38422532935055      2.51251934021444     -0.10503295993140
  C   -4.37699763721884      1.93300027004970     -0.05678321417188
  C   -3.11144433727548      1.30539274878838     -0.01723513979093
  C   -3.08592145133775     -0.04101052474666      0.29221193219704
  C   -2.04623773122651     -0.97119160493422      0.32585417464069
  C   -2.46195555658003     -2.22417224145160      0.85358037090076
  N   -2.85635554211385     -3.17923948600045      1.38419195447239
  C   -0.67160474129921     -0.80983488262079     -0.02098234095293
  C   0.11435634743771     -1.95346231502868     -0.30762635805708
  C   -0.46268048153860     -3.18740382915166     -0.69151878680791
  N   -0.83533480586973     -4.20838613910046     -1.10102371558551
  C   1.52040372776772     -1.90660612076960     -0.33133634998282
  C   2.16195958461584     -0.72880533935150     -0.08160538703885
  C   3.54913311607790     -0.39583025035289      0.00669245901431
  N   4.59835087899027     -1.22186451808210     -0.11893421643701
  C   3.62705821862395      1.00634872662187      0.23052990917572
  C   4.83260104242377      1.69548899362981      0.40280652600460
  N   5.86845146265445      2.20872891654597      0.53560435727366
  C   2.31993037797007      1.52650075171310      0.27502566332434
  C   1.40069601824035      0.48678825954892      0.08387408405078
  C   -0.01323820133449      0.49440982206706     -0.01181077013831
  C   -0.64609815193790      1.73353355201733     -0.17122040154987
  C   -1.97228046074681      2.14159626471940     -0.24622291362493
  N   -2.21325787309138      3.44091415737033     -0.53937395796758
  H   -4.05221956511350     -0.45690118526608      0.54297476599193
  H   2.05330274616935     -2.82278755261303     -0.54873377713593
  H   4.47597494795373     -2.21715264657582     -0.11355281450838
  H   5.52660573567761     -0.87903460447657      0.05863399398775
  H   2.10365498393962      2.56377922109609      0.47101044105466
  H   0.05145955306282      2.54705776593599     -0.32208178713761
  H   -1.45862033559076      4.09566837801314     -0.61775875076541
  H   -3.14607304078018      3.81353646849035     -0.52030777360822
