32
Coordinates from ORCA-job ./opt_b97-3c_parallel
  N   -5.55645474985771      0.33155482048216     -0.53968964356894
  C   -4.47673715400556     -0.03640792316075     -0.30837552500439
  C   -3.14652198162684     -0.43313712855502     -0.04439169679373
  C   -2.98421281787328     -1.70042408891363      0.53458114929662
  C   -1.86565941302857     -2.46247581803767      0.64913053610837
  C   -0.55544404251202     -2.18860528395655      0.18664248238641
  N   0.24692816218865     -3.24930651327215      0.05886582900514
  C   0.01019285570211     -0.88205240033202     -0.05026730855077
  C   -0.72458205223515      0.37922186120488     -0.02051229004198
  C   -2.12863878886796      0.47945980011005     -0.39812052553176
  N   -2.50158047842098      1.53672365999661     -1.14434395133795
  C   -0.00625911926107      1.58558019158536      0.16435970557172
  N   -0.67505187536534      2.80984261771336      0.31617562376402
  C   1.40525577981824      1.62234570800092      0.15844024955938
  C   2.07345808708171      2.83881659590971      0.41340679026718
  N   2.55246438391520      3.87495897264910      0.63105025763427
  C   2.11428867994255      0.44994417086786     -0.08335899730567
  N   3.43800523495815      0.23801996042292     -0.14461836694729
  C   3.51681734814252     -1.10391132040677     -0.27976524393457
  N   4.70668189227442     -1.73989187223267     -0.35628121041779
  N   2.34101565227627     -1.78255952259093     -0.29998870967627
  C   1.40451200220931     -0.79886155502437     -0.18474662531906
  H   -3.90354558500355     -2.16556968150640      0.86704050709609
  H   -2.01017017244521     -3.45716587860234      1.05270461692863
  H   -0.09329196484374     -4.15765430774621      0.31931538246588
  H   1.25018944837216     -3.09452748059985     -0.12838162439699
  H   -1.88722627587518      2.33688703518113     -1.19348208315402
  H   -3.48108246800333      1.70191812655290     -1.30906755683026
  H   -1.43899063654661      2.77721467620601      0.97416051442899
  H   -0.05361832563270      3.57085897113879      0.54727680423987
  H   5.50098301924918     -1.16808276874983     -0.58189277798604
  H   4.70671825127440     -2.67394423513450     -0.72348027565496
