26
Coordinates from ORCA-job ./opt_b97-3c_parallel
  N   -4.95582769712902      0.71894616625254      0.12905737543233
  C   -3.92909955946161      0.17206248124637      0.10166917634408
  C   -2.70447583342970     -0.50182946665460      0.06763239188334
  C   -2.51773003828462     -1.92054788738282      0.06499346046333
  C   -1.17254796499212     -2.21712550760370      0.00585746256443
  C   -0.44765728990243     -0.99143729815770     -0.02020623514722
  C   -1.42813100930045      0.08047716841816      0.01252571516092
  N   -1.11499545624033      1.37336810160273     -0.08544602182739
  C   0.16121792725827      1.70626008223276     -0.12393616551263
  N   0.43204992666892      3.06549211058454     -0.20565166415028
  C   1.24626096183409      0.75968840732980     -0.01138251515877
  C   2.51253986389948      1.26967685963309      0.22906623857607
  C   3.77002797332149      0.66207111772209      0.30545747981017
  C   4.10018019791391     -0.65347737941828      0.08980239211571
  C   3.22394643017185     -1.71521551124006     -0.16951727773484
  C   1.85394120706104     -1.70993819923177     -0.20741968630345
  C   0.90321134628597     -0.66922502881376     -0.07024270216233
  H   -3.32315533667071     -2.63580194880767      0.10861706220165
  H   -0.75994955407518     -3.21309257047233      0.01143203835601
  H   1.11930398309650      3.33174837024167     -0.89245464377643
  H   -0.42357838935938      3.58683497829878     -0.32226157013773
  H   2.53337377251599      2.33570219334407      0.41436944729195
  H   4.58958129549847      1.33140518949490      0.53556154543624
  H   5.15263901886220     -0.90466666891057      0.13961318442843
  H   3.68970345726113     -2.68113108825188     -0.32145007510009
  H   1.40666124879627     -2.68191526285637     -0.37061971065351
