27
Coordinates from ORCA-job ./opt_b97-3c_parallel
  N   -5.71350002361732     -0.23117829423964     -0.70363070419783
  C   -4.58520122977977     -0.37371384394960     -0.46461702752605
  C   -3.21116481714617     -0.55016331100782     -0.17132771706416
  C   -2.80950233185196     -1.81929384261492      0.28203802525397
  N   -1.59961783804811     -2.32293868794528      0.37077245894103
  C   -0.44162283654678     -1.71501966351851      0.14150146694269
  C   -0.08154358747901     -0.36635261532529      0.11831722950275
  C   -1.05319581329845      0.74970787146635      0.08610235619332
  C   -2.39559607090228      0.59770892248278     -0.18002557405032
  C   -0.53233699315705      2.08446877776478      0.17760188002359
  N   -1.37445201014906      3.15413709884309      0.31729416230875
  N   0.75985225902539      2.39526123142390      0.09107551893151
  C   1.63629397965025      1.40891825146446     -0.01694082139161
  N   2.95914010208597      1.59015378870846     -0.12936423160441
  C   3.48524375305957      0.34800544762752     -0.13040084290640
  N   4.79945337166886      0.15186735995657     -0.23061082964880
  C   2.49722726130425     -0.69186316381518     -0.01724473821785
  C   2.79455026281887     -2.05084068891638      0.00713076182245
  N   3.10121524431628     -3.17590758617512      0.02235884830907
  C   1.26906670671705     -0.01521676835193      0.03548580709064
  H   -3.60468781726134     -2.50085815469154      0.56930205669811
  H   0.37396961966868     -2.41607196493661      0.00233910857633
  H   -2.93171187594131      1.51051549443582     -0.40790902955476
  H   -2.18302134971493      3.05768805392185      0.90450496296454
  H   -0.88823280837712      4.02914805077812      0.42440296512454
  H   5.19271884140265     -0.77140039571082     -0.21878985009716
  H   5.40992793745346      0.94534397032468     -0.30258837292454
