30
Coordinates from ORCA-job ./opt_b97-3c_parallel
  N   -5.76159146660589      1.80707965443581     -0.73553501333198
  C   -4.75788781739562      1.25366327366094     -0.54664895559294
  C   -3.55605091325727      0.55931554214850     -0.31893120047151
  C   -3.45388342475628     -0.85733722661968     -0.16101792195839
  C   -2.11832815714703     -1.15622838158604      0.01170125989657
  C   -1.42810131794604     -2.37156746503788      0.21007657612278
  N   -2.07613261003032     -3.54162923424808      0.36081924029883
  N   -0.10215717454855     -2.42890638345060      0.20956645253774
  C   0.64481243340822     -1.31016215310974      0.09680299257986
  C   1.99612206789696     -1.61220135434962     -0.06565927145194
  C   3.16368360368576     -0.85807226141450     -0.19200111254562
  N   4.30465041119079     -1.53256292681296     -0.46068574283553
  C   3.24708325159863      0.55049613012630     -0.02474863687837
  C   4.54008723284382      1.12013926625736     -0.09519106228853
  N   5.62960571103100      1.51909714971332     -0.16716315282599
  C   2.19391581648948      1.41234554711412      0.23791153496192
  C   0.81579805388066      1.21862269879374      0.30730510315887
  C   0.14756496458133      2.43065478284835      0.63817937924465
  N   -0.31021610601879      3.45466499559551      0.93742136089533
  C   0.03894971123683      0.04017367516411      0.10748591485061
  C   -1.35334232186551      0.07225527747260     -0.02297287453517
  C   -2.28953673112735      1.12600871227262     -0.22578674112264
  H   -4.29024898035093     -1.53677714472804     -0.19584232209000
  H   -1.53125662623962     -4.35565654189457      0.58332209561085
  H   -3.06223572011708     -3.56560468280300      0.53730539088110
  H   2.14568606023831     -2.68300908850216     -0.12587004081617
  H   5.19430952215526     -1.06618754202314     -0.47817562756505
  H   4.30589376336461     -2.53369955249055     -0.50410903735150
  H   2.49999108835223      2.43592379369444      0.40418196165876
  H   -2.08778003564759      2.17455255087278     -0.32631141223657
