32
Coordinates from ORCA-job ./opt_b97-3c_parallel
  N   -0.85823454121843      4.42344340434878      0.42304811577066
  C   -0.67186114269342      3.27753588219268      0.33063113829743
  C   -0.55370153083186      1.87980266768743      0.21983209253969
  C   -1.77166488953373      1.14049255441880      0.20820410522410
  N   -2.97433407310974      1.79099398607826      0.34116289103608
  C   -1.68695191594822     -0.22532193383673      0.04005784308658
  C   -2.70531666361670     -1.19708036603073     -0.12575382910093
  N   -4.05641008553906     -0.96556962998114      0.02382050181846
  C   -2.10853982805198     -2.40326204342687     -0.49557285001008
  C   -0.71491706908330     -2.25260894703402     -0.49200441506295
  N   0.13922954772556     -3.22478009637003     -0.90671475356784
  C   -0.40457624605577     -0.87899408754085     -0.13231647630574
  C   0.78967949756664     -0.17994491623793      0.00410980418173
  C   2.04381752131706     -0.86525664361792      0.26281608471047
  C   1.96834596994592     -2.07651889159305      0.97341103232247
  N   1.92515119194605     -3.09658420736604      1.53872898853804
  C   3.35405499291498     -0.49392825122778     -0.06101176486087
  C   3.83563538346630      0.71410271249077     -0.50773523959669
  C   3.11673424305643      1.90652241676402     -0.53975173850019
  C   1.80003466632408      2.14489225722601     -0.22872345373464
  C   0.71193523936993      1.27496046395078      0.02577431577133
  H   -2.93662061009981      2.79578173757774      0.26425592334531
  H   -3.73677093386890      1.39141173320759     -0.18225935168150
  H   -4.29661609887017     -0.39431219462998      0.82000373837384
  H   -4.62455103179778     -1.79691919487387     -0.00563570431398
  H   -2.62841123399274     -3.32653290261650     -0.70279775005753
  H   -0.30245685943158     -4.10184975351752     -1.12928374279199
  H   0.99613463700567     -3.35601700236969     -0.39000364960552
  H   4.09208862142141     -1.27067430892374      0.10086901749345
  H   4.88781445930763      0.76290857253448     -0.75348879246714
  H   3.68445283258565      2.78955451325592     -0.80973587353911
  H   1.52087459538970      3.18911537716114     -0.27467277571295
