32
Coordinates from ORCA-job ./opt_b97-3c_parallel
  N   -4.63940657301934     -2.35861360720369      0.27482973882742
  C   -3.69451307151261     -1.67862110454430      0.20159650929651
  C   -2.56741948629752     -0.86422877330737      0.11596811514732
  C   -2.57100838463066      0.53872449852661     -0.12068011585119
  N   -3.70081604446879      1.31218761422638     -0.29156090062477
  C   -1.24218286296718      0.98247052976193     -0.09656501065148
  C   -0.69140954760485      2.26367660482681     -0.12163764215357
  N   -1.48874832399115      3.38323694662631     -0.22996810614368
  C   0.69575432516063      2.38803919473666     -0.02323725840664
  C   1.57252647792203      1.31064929300553      0.10791992429149
  N   2.85228304819444      1.66170650832031      0.35923820823524
  C   3.92146908391442      0.89276596645611      0.42078387850943
  C   4.14839178689444     -0.44243918946186      0.13953652243007
  C   3.18358777336794     -1.40019294463918     -0.19823310147252
  N   3.63512851173237     -2.67385673965565     -0.47228057564104
  C   1.80208658464706     -1.20579652072088     -0.20651400907782
  C   1.02677678376864     -0.06098508208101      0.02906390716161
  C   -0.37507661060414     -0.16358504060577      0.07541093428575
  C   -1.22229452487915     -1.29361937663537      0.24295477224076
  N   -0.85545564643121     -2.59243853571274      0.46701512319898
  H   -4.55217557623749      0.77773137101341     -0.37781451745053
  H   -3.62867827922538      1.99473346130632     -1.03101311214261
  H   -2.39104424952931      3.30804936461080      0.21404627118261
  H   -1.02930147303080      4.25104865235416     -0.00783266941246
  H   1.14414710437484      3.37079455010190      0.02803253181952
  H   4.81186648332920      1.44235680812871      0.72272780710261
  H   5.17686571889042     -0.77667714149678      0.21007508931903
  H   4.58786221696479     -2.75755219870923     -0.78050681391302
  H   3.00445958240555     -3.28565680834405     -0.96048122922241
  H   1.23768474090811     -2.07439185908521     -0.51938904836263
  H   -1.59014702094881     -3.18356413986877      0.82501739557598
  H   0.01699760820376     -2.71804009732966      0.95709692400116
