28
Coordinates from ORCA-job ./opt_b97-3c_parallel
  N   -4.75238556862566     -2.47045694918131      0.36798713984783
  C   -3.95692291597899     -1.62936579573658      0.27491461694240
  C   -2.98776396184079     -0.59954933945605      0.15630898243686
  C   -3.44982090780284      0.71446410533075      0.32270706739128
  N   -2.84094693182056      1.84694327687248      0.07953640268942
  C   -1.56248791913008      2.05797808880021     -0.23104676835626
  N   -1.34973406352233      3.27465980019544     -0.76485361788724
  C   -0.41213195536795      1.22015221250166      0.01196336424956
  C   0.81324335948814      1.83417453878903      0.19387064113537
  C   2.03101958095403      1.12691131688524      0.27204427696226
  C   3.23100483452568      1.83711400887915      0.50956762185648
  N   4.19025850343126      2.46151212577731      0.70255580371585
  C   2.02500749263381     -0.24676996203796      0.07659646967574
  N   3.06574727858971     -1.09296977801004      0.06713218678747
  C   2.51339177605697     -2.30896636836163     -0.13713743508480
  N   3.29753813470780     -3.39866556527642     -0.25383081601585
  C   1.09181741438183     -2.27273656265165     -0.25573246957118
  C   0.74661413635765     -0.94085002003585     -0.12462106546536
  C   -0.49272916187206     -0.23549582008173     -0.07269019565753
  C   -1.65959874193974     -0.98429919629472     -0.05538558273296
  H   -4.47846305239628      0.82268961653260      0.65127382578363
  H   -0.49179834481197      3.50066402870121     -1.23120817764784
  H   -2.14699053215907      3.87268091352072     -0.89572977554721
  H   0.85936415549387      2.90530489782991      0.31971753020602
  H   4.26523276264162     -3.29552280898105     -0.00272173079609
  H   2.89929021757842     -4.31534975226518     -0.17323085300203
  H   0.45295607368862     -3.12273689863779     -0.43225224512057
  H   -1.51642787596085     -2.05308241640769     -0.13302948429523
