29
Coordinates from ORCA-job ./opt_b97-3c_parallel
  N   -5.17607395249380      1.17163886255345     -0.02881370869305
  C   -4.19620896731088      0.54230037372381     -0.00931085530515
  C   -3.00453379820769     -0.18948744524754      0.00992648082756
  C   -2.85921266411283     -1.58769588807333      0.14314758882199
  C   -1.51262097739234     -1.92207766267427      0.12114492164398
  C   -0.74415907245636     -0.72646379400521     -0.01157611674236
  C   -1.70458981970042      0.35751856065877     -0.06354559855547
  C   -1.27153280727325      1.66931437126820     -0.08329368454221
  C   0.07536763755513      1.93702273891087     -0.06090199101149
  C   1.06958168108654      0.92867326216439     -0.03539669238283
  C   2.42845673250937      1.41174450608144     -0.01712090225248
  N   2.63421246640407      2.72998461706110     -0.33787918843913
  C   3.55677572628397      0.73536090170647      0.44471157838231
  C   3.72793011993353     -0.61923512490585      0.62007464558328
  C   2.87753068213520     -1.64450067012348      0.27378271929448
  C   1.55944288086656     -1.57516793315851     -0.18123999551686
  N   1.05891353429094     -2.72587944384441     -0.69424280491134
  C   0.64850356454928     -0.45574582970568     -0.04177884525605
  H   -3.67629134908030     -2.28249478514535      0.25702506858350
  H   -1.14675046182621     -2.91846106153159      0.29571779915788
  H   -1.98783399494256      2.48095210663775     -0.07109249407990
  H   0.37115566415827      2.96772748821956      0.04699101189855
  H   3.58868965428821      3.01805464112021     -0.45646008906272
  H   1.99754284752110      3.16090710586011     -0.98266607110183
  H   4.43433291131203      1.34879811719384      0.61395569804302
  H   4.70532877438225     -0.92405288304265      0.97421882037282
  H   3.29869425814934     -2.64241968903789      0.31702083899875
  H   1.69997683183339     -3.44986752809627     -0.96161384443861
  H   0.17778142793745     -2.70123691316790     -1.17837661441664
