30
Coordinates from ORCA-job ./opt_b97-3c_parallel
  N   -3.60919727232284     -2.33048225913944      0.56043227359661
  C   -2.91961159135102     -1.41216690617453      0.37188670489676
  C   -2.11376859547783     -0.27686908471501      0.14226323478030
  C   -2.80180934490000      0.85298937386589     -0.35810385799835
  N   -4.07050981390238      0.68698841339484     -0.79867154816298
  C   -2.30065827306645      2.16766605721785     -0.35054185878719
  C   -1.04374946999983      2.59977894904094     -0.04625366103135
  C   0.17656272781338      1.91883303172793      0.14642544604688
  C   1.32078600221837      2.75059160458976      0.23076741581504
  C   2.59715374521204      2.25101373235439      0.22559337996193
  C   2.79765090996033      0.88222501072638      0.06738907910397
  C   3.96773858476418      0.12747525109472     -0.09620383478022
  C   3.59931646335641     -1.19528534265266     -0.30198832549330
  C   2.19094316186254     -1.32177307653478     -0.23902063244275
  C   1.50329313535840     -2.49154148956280     -0.57016391115537
  N   0.91433795874589     -3.46546822342668     -0.82444070239699
  C   1.65016811249493     -0.01461353936008      0.00712950424312
  C   0.34665125978826      0.49253031876716      0.15551439219155
  C   -0.74555531216441     -0.40192355563445      0.49973670710515
  N   -0.41181075170668     -1.47566349927999      1.22362864456063
  H   -4.54452909676645     -0.19311405602831     -0.69354181445277
  H   -4.64315366146858      1.48963401558180     -0.97957599179228
  H   -3.01878332108521      2.93785984695470     -0.60487316890445
  H   -0.93855945099610      3.67829636377948     -0.04937458434726
  H   1.16523101520650      3.82011287979717      0.26682520464891
  H   3.44513694466184      2.92051144168308      0.29429045020709
  H   4.97296710070567      0.51724791042430     -0.10206941766411
  H   4.26442700458046     -2.01767951106506     -0.51394572002859
  H   0.55841608842622     -1.65556464254959      1.41119101089648
  H   -1.03474231274739     -2.26062016647683      1.31716724298338
