33
Coordinates from ORCA-job ./opt_b97-3c_parallel
  N   -6.06743936514139     -0.39620020380282      0.72700667994005
  C   -4.95518659315751     -0.12978739218354      0.50989105039172
  C   -3.59979684561317      0.10772110900143      0.25677976459636
  C   -2.95640298901900      1.34715779843005      0.10910213718140
  C   -1.58829782909581      1.10810058873843     -0.04604920904579
  C   -0.51849337464584      1.97744137088985     -0.25591257576521
  N   -0.68217043388339      3.30299278999648     -0.40320049984157
  C   0.80008220048509      1.42018115426415     -0.28350463191459
  C   1.83604376119804      2.33044405443442     -0.57254145731501
  N   2.57847991687002      3.16934636284319     -0.88749390030702
  C   1.05156025957003      0.04180487564596     -0.12835353321426
  C   2.37165462949131     -0.36677170098733      0.23819058166117
  C   3.14341966646251      0.56920209099064      0.96500549386228
  N   3.84076408284055      1.21679515793661      1.63542335270432
  C   3.05075447233154     -1.59611233283835      0.00625029409765
  N   4.36644983744720     -1.66634170286160      0.33206468795358
  C   2.49352849526668     -2.74218174209594     -0.58100303810336
  C   1.16774595315618     -2.99356836756993     -0.83657456969654
  C   0.04110222151909     -2.21958166084882     -0.61032100252871
  C   -0.08284032286627     -0.87898420647996     -0.22665430276658
  C   -1.35856716424895     -0.31629032769158     -0.02744638209973
  C   -2.62398895173296     -0.92846692172022      0.17623712425768
  N   -2.91899244451625     -2.25631796457273      0.28376589927383
  H   -3.45996383985417      2.29937194719792      0.14925743819797
  H   -1.59867691778706      3.69367127982403     -0.50670714458302
  H   0.10347602745874      3.89745350040329     -0.60377562997555
  H   4.81845182356384     -2.56014818237098      0.36377376114896
  H   4.81286361514891     -0.91403332603433      0.82731515879072
  H   3.18985600731307     -3.54081478122824     -0.80478308815925
  H   0.96434587299757     -3.97090319370797     -1.25857654468087
  H   -0.88699596578647     -2.69716366310300     -0.88824146495703
  H   -3.83596078081849     -2.46537959363950      0.64802119681225
  H   -2.19952475005433     -2.85157806926035      0.66065433248329
