28
Coordinates from ORCA-job ./opt_b97-3c_parallel
  N   -5.69211112330522      1.37084696423002     -0.01942735119280
  C   -4.56436411575691      1.09234314726969     -0.00961055794907
  C   -3.18303150772436      0.77075047909147      0.00330028386242
  C   -2.28024001787359      1.85233287406506      0.08386227777118
  C   -0.91676603420839      1.83911073345643      0.09517951432886
  C   0.02963435887739      0.78551228397486      0.03801098295951
  C   -0.27797017370929     -0.64667683722523      0.01754434163955
  N   0.67287635697876     -1.57848765736892      0.06850995559761
  C   1.97537793708368     -1.26046300565816      0.08595158572331
  N   2.83140954519013     -2.30637007483857      0.19922381712422
  C   2.39398641313700      0.06197561763899     -0.03104006638740
  C   3.62281037284393      0.73391693726361     -0.10219217611887
  N   4.88173947789696      0.21112460117644     -0.17338767256343
  N   3.44449924081222      2.09083968383547     -0.07178701397274
  C   2.13163751664209      2.30617289750548     -0.00753339051779
  C   1.39131195234998      1.09033834819775      0.00670318213720
  C   -1.60116343575003     -1.19357489331208     -0.05369890191998
  C   -1.66141869158584     -2.61525006737922     -0.11643040420140
  N   -1.80429113662281     -3.76596592511630     -0.17187906193485
  C   -2.84850757605018     -0.57436940054117     -0.06425044634606
  H   -2.73923594387351      2.83083815277357      0.13547361233820
  H   -0.46907021100748      2.82241728805575      0.15042921030902
  H   2.39894957603059     -3.18804534991762      0.42390455305036
  H   3.73367389060760     -2.14161961059786      0.61114878558150
  H   4.99052567035944     -0.62875809785135     -0.71835458466340
  H   5.59009659748189      0.90163163095246     -0.36786004236558
  H   1.75116910459615      3.31588332939916      0.01308432720831
  H   -3.68535298092020     -1.25641216727972     -0.12596730329792
