31
Coordinates from ORCA-job ./opt_b97-3c_parallel
  N   -5.23120121894549      1.18585148611299      0.09502816955550
  C   -4.18876335313518      0.66523007483744      0.06787391691508
  C   -2.98093668935524     -0.02774083063212      0.04752042539953
  C   -2.83495073494501     -1.45488208097935      0.07967680308775
  N   -3.85778867391307     -2.33977991593291      0.09129537748621
  N   -1.55492328806248     -1.86131801488744      0.04718510583189
  C   -0.81969622296660     -0.71980336572352      0.00088074398704
  C   -1.66242732473376      0.45094052979400     -0.01454831046921
  N   -1.17903139219241      1.68344923383400     -0.14778074907132
  C   0.13822968889178      1.83516586341619     -0.16981381672960
  N   0.53780877532459      3.18489146814263     -0.35971961937531
  C   1.09337329831418      0.78569246087064     -0.01809820970012
  C   2.47367033383645      1.07839806989474      0.26838305517221
  N   2.78717944362951      2.32306626686024      0.68919045924082
  C   3.58868480462847      0.21874415372631      0.17826150202879
  C   3.69479258332978     -1.14078225208997     -0.03346491077467
  N   4.94774398084389     -1.68999426064119     -0.06233833833230
  C   2.61961455345629     -2.06154798607701     -0.13426231409180
  C   1.29425895525741     -1.78865461139157     -0.07918550529570
  C   0.57059168641121     -0.57179166271627     -0.01898593487195
  H   -4.76441841103855     -2.01055208429924      0.37261020512419
  H   -3.62863856131891     -3.28607305699233      0.33896381033539
  H   -0.30612275208527      3.73661932489795     -0.44102240081893
  H   1.08639324053462      3.30352116576321     -1.20231868358622
  H   3.74401359682629      2.57229238269709      0.85264718716117
  H   2.07695948756871      3.04975825849461      0.66819280388890
  H   4.53755661704946      0.72109684023543      0.33786398409363
  H   5.05039898552231     -2.61618718813686     -0.43482459967036
  H   5.73764589230816     -1.08765779973353     -0.20757245289703
  H   2.89754332643252     -3.10512362661783     -0.22547718493753
  H   0.63741243312648     -2.64882298532639     -0.11604645328655
