26
Coordinates from ORCA-job ./opt_b97-3c_parallel
  N   -4.06459961475509     -1.60975405069066      0.01861904433321
  C   -3.00355486966397     -0.70628059094629      0.00956420772301
  C   -1.70816357210919     -1.20252739359096     -0.00615622994339
  C   -0.57304860098279     -0.40863437923902      0.04132444846134
  C   -0.47209667642858      1.10593651939201      0.04381146291050
  N   -1.30386904609917      2.08308691085206      0.07081707595923
  C   -2.65146226494497      1.83364428471543      0.11206276085286
  C   -3.37359248174298      0.67146023102253      0.08804523962172
  H   -4.44557140464882      0.83550933811455      0.13815737008139
  H   -3.23995902884246      2.74198100286361      0.16767098247076
  C   0.97376248629922      0.99101347994501      0.00268700633083
  C   0.82073790836182     -0.47699084719871      0.01202755502465
  C   1.85584960428301     -1.43187393503249      0.01594292880752
  N   1.51862464264440     -2.75018870450108      0.04561742098032
  H   0.60243179126726     -2.99395496071121      0.37548081228519
  H   2.23687456848380     -3.42232763147824      0.25113442844168
  C   3.19996772979381     -1.06209169893383     -0.04673650336715
  C   3.78764335678208      0.22110044118817     -0.11330962076680
  N   3.36092912673458      1.46751242187382     -0.11486404442818
  C   2.04388246377941      1.81792611007739     -0.05200672529558
  H   1.86238489773521      2.88734120096620     -0.05199429304172
  H   4.87463268853210      0.16435980322094     -0.16648734416352
  H   3.91728925511068     -1.87548989002251     -0.04693038667408
  H   -1.59900640686567     -2.28146793844763     -0.07824239130881
  H   -3.84814878723934     -2.52899467531685     -0.32879070067586
  H   -4.92455562228440     -1.26476155832201     -0.37426702181930
