23
Coordinates from ORCA-job ./opt_b97-3c_parallel
  N   1.49097272856109      2.60919004742095     -0.00189517426356
  C   1.72449662465649      1.28847510706183     -0.00161605865052
  C   0.61049036263839      0.43482029718434     -0.00132118278942
  C   0.55100100085760     -1.03540434338428     -0.00087925017618
  C   1.54399491017058     -1.97487192081603     -0.00071380550931
  N   2.87199229483723     -1.75963387063539     -0.00096400863096
  C   3.45256354710259     -0.55890007378935     -0.00135521639339
  C   3.03355905343867      0.77445578344522     -0.00159817770374
  H   3.83767550917310      1.50137071851076     -0.00185320145468
  H   4.53763141876208     -0.64579914667715     -0.00151249214078
  H   1.26111866708570     -3.02381823184842     -0.00035015152069
  C   -0.88633542231693     -0.97509450963594     -0.00076147834222
  C   -0.77398930554379      0.54240980514812     -0.00114968533122
  N   -1.64669507618214      1.53412783056272     -0.00138731836964
  C   -2.95284450412551      1.28526374066980     -0.00120950434973
  N   -3.68272646669885      0.14669167797420     -0.00061669060327
  C   -3.30625230455623     -1.11004571422638     -0.00018897583182
  C   -2.01051605817436     -1.71865214300181     -0.00028757003835
  H   -1.97122338355716     -2.80234105307018      0.00008733143846
  H   -4.13723600997557     -1.81286691118431      0.00034598925478
  H   -3.56853336147921      2.17708197490072     -0.00154551596399
  H   0.54112171175623      2.94519636258671     -0.00206401150274
  H   2.23885395106997      3.27802031920385     -0.00230223052702
