27
Coordinates from ORCA-job ./opt_b97-3c_parallel
  N   2.28805896003219      3.52509327727206     -0.11414297755971
  C   2.27063010834756      2.36494707580158     -0.07492935820890
  C   2.25191953102251      0.94599947568518     -0.02786597620841
  C   1.04725967100646      0.30296230994686     -0.00709212666392
  C   0.74693588031516     -1.16967923499693      0.03063363766575
  C   1.64203723378987     -2.21984787251001      0.09747661035857
  C   3.02395843062553     -2.08356305562519      0.10862618856189
  N   3.82397814535946     -1.00218327558541      0.05064815473169
  C   3.52043286841508      0.26859074676298     -0.00979199931170
  H   4.37927782822154      0.93251771952555     -0.04950225775923
  H   3.58324405965821     -3.01163037402049      0.17170081744898
  H   1.26909835206339     -3.23773321376219      0.16039640493292
  C   -0.62095494946212     -0.86904961520192      0.01380376878833
  C   -0.35199657760319      0.57463014132507     -0.01915891153457
  C   -1.18258510541458      1.66522515659677     -0.03460082300560
  N   -2.51388726653471      1.67382928779720     -0.00249989997785
  C   -3.30552320695124      0.58684042519805      0.01331235421518
  N   -4.61822783974640      0.94085104237285      0.04368984091325
  H   -5.33812635478335      0.27701641899836      0.25850169726357
  H   -4.81282150181209      1.91759135621829      0.17540209005922
  C   -3.06736532838637     -0.81455577873491     -0.03546383780706
  C   -1.86898588780484     -1.51679039041801     -0.02476940334399
  N   -1.88918535054040     -2.88102030080841     -0.01291474850676
  H   -2.74199015613846     -3.34794171937558     -0.26614899549257
  H   -1.05285855437145     -3.35967308007708     -0.29392409785388
  H   -3.96375841930073     -1.42375333183561     -0.07504634741209
  H   -0.72903544280700      2.65071232335095     -0.06503741899311
