24
Coordinates from ORCA-job ./opt_b97-3c_parallel
  N   1.77039002007349      3.30257688742739      0.00086986149732
  C   1.62423438012026      2.14826475432602      0.00077581463871
  C   1.53201636075055      0.74221215387392      0.00067811899236
  C   0.33681067220072      0.11274715940588      0.00045707552439
  C   -0.02184093300308     -1.30030633664969      0.00030473549994
  N   0.69802201694513     -2.43903897879982      0.00040197558073
  C   2.00082284996660     -2.38072425971756      0.00062787852194
  N   2.91681256706717     -1.36981521716495      0.00073501478692
  C   2.77749306500990     -0.07246638024091      0.00074058174031
  N   3.91334683773150      0.64620489358694      0.00080151137930
  H   4.78415837492986      0.14474504505860      0.00084143008352
  H   3.92003580495838      1.65075750030846      0.00081836482092
  H   2.48927658241449     -3.34949427931242      0.00073242386333
  C   -1.38254419534652     -0.97217354159011      0.00007784211795
  C   -1.10208432165382      0.46103947182643      0.00022783577948
  C   -1.87126387347768      1.56004707120499      0.00016327045040
  N   -3.26286250825848      1.58545406384466     -0.00005837860252
  C   -4.03612148543395      0.55473682821230     -0.00028854848542
  C   -3.81346848615943     -0.89300970092426     -0.00040530093875
  C   -2.65482924876742     -1.59403345692605     -0.00023409112696
  H   -2.69531501178180     -2.67662015478037     -0.00034916249233
  H   -4.73379950897839     -1.46476077339757     -0.00064856949949
  H   -5.09533387322073      0.80827796191536     -0.00043373158211
  H   -1.41357511028665      2.54022324201279      0.00030115495009
