31
Coordinates from ORCA-job ./opt_b97-3c_parallel
  N   -5.32193406093760     -1.40750744383241      0.00005126755662
  C   -4.17872254130783     -1.19273543161294     -0.00037696091875
  C   -2.79831874369698     -0.87110942319560     -0.00093615468074
  C   -1.96152316410885     -2.02318843706841     -0.00164962387623
  N   -0.64790051654075     -2.16210086223783     -0.00201821265851
  C   0.14891903839952     -1.11354514225278     -0.00157226824125
  C   -0.04037711471010      0.41068459922264     -0.00090024785462
  C   -1.21199799899271      1.12086167103972     -0.00089512683752
  C   -1.15441841558043      2.53340140693332     -0.00121334420088
  N   -1.11440153289531      3.69609562593050     -0.00142183744607
  C   -2.52579689741579      0.51970407504221     -0.00079156639696
  N   -3.57581382023630      1.38207443426533     -0.00128522499401
  H   -3.43848872916256      2.37501052134072      0.00220259993480
  H   -4.51999570221048      1.04150173414273      0.00106334259902
  C   1.37049008357964      0.55233973677437     -0.00116248209689
  C   1.51691257926197     -0.92810879169631     -0.00191111994296
  C   2.62208818027834     -1.80798866527209     -0.00327143696822
  N   2.32592533092223     -3.12414425509715     -0.00313306480775
  H   1.36017346828625     -3.41438632395368     -0.00403684087231
  H   3.04523559793948     -3.82248461486749     -0.00650759938919
  C   3.93511223273670     -1.34740050265670     -0.00434489977853
  C   4.36505797549046     -0.01388033116384     -0.00377526276445
  C   3.73996874241204      1.21403613670362     -0.00223494390641
  C   2.35333594079625      1.54142633025914     -0.00084187822140
  N   2.04198823858475      2.85556444330305      0.00169704418400
  H   2.77001150563233      3.54430076182318     -0.00185970220634
  H   1.09573160379150      3.19110590049593      0.00007964156557
  H   4.40723349785761      2.06767619535095     -0.00183008104060
  H   5.44682047893766      0.07183638301224     -0.00469143016342
  H   4.71673813490429     -2.09698412786763     -0.00548272258918
  H   -2.50940987401534     -2.95759839856474     -0.00183336778685
