27
Coordinates from ORCA-job ./opt_b97-3c_parallel
  N   -2.55310143591508     -3.51500901854173     -0.00267776972872
  C   -2.46260249581656     -2.35727466696209     -0.00387944053494
  C   -2.32040904485655     -0.94532825025217     -0.00480093071030
  C   -1.06799111911974     -0.39121286040085     -0.00518879329796
  C   -0.71688081926308      1.09834829986093     -0.00869356354070
  N   -1.40493143066494      2.21059087708967     -0.00691056465722
  C   -2.75139615161876      2.17134138608270     -0.00333620232324
  N   -3.64142111969098      1.17640733325036     -0.00561977874066
  C   -3.49634047135380     -0.13522095925198     -0.00713831268945
  H   -4.43107381131254     -0.68813488364224     -0.00973485822207
  H   -3.20717438083300      3.15470313972421      0.00068880652467
  C   0.63532525977018      0.75243708538246     -0.00915838230305
  C   0.30988748916370     -0.68274047084264     -0.00275933619824
  C   1.14800216369102     -1.78278545143127      0.01599649178667
  C   2.52198746334711     -1.72042092230645      0.02841643956849
  C   3.38622763925261     -0.58099937475244      0.02864015922351
  N   4.71470562398518     -0.89940100616158      0.08648747919089
  H   4.99914410246561     -1.84076079446457     -0.11203021030453
  H   5.40010068185324     -0.19257632032630     -0.10728246252261
  C   3.09994022252322      0.79215200111405      0.01107252877118
  C   1.85751227664463      1.43850734878104     -0.00325374467730
  N   1.79018342682180      2.78554669269979     -0.03061889579853
  H   0.88646664553851      3.23007787582770      0.00798375335522
  H   2.60897557910138      3.35653809103112      0.06288351427849
  H   3.96591699154619      1.44521099980514      0.01558235323398
  H   3.03851657510574     -2.67185918292588      0.05446408172363
  H   0.69514181533489     -2.76684253038693      0.02090304919287
