30
Coordinates from ORCA-job ./opt_b97-3c_parallel
  N   5.65787876741356      1.91498241191942      0.06647654303208
  C   4.70067249905842      1.25432985834960      0.04861348682935
  C   3.51926336981095      0.47562116484672      0.02678543428850
  C   2.26844400668802      1.20019911340911      0.03245394790146
  C   1.07275181342669      0.60069005520756      0.01921932260126
  C   -0.34769738357557      1.03342180338469      0.02119900959349
  N   -0.89679352895480      2.18857819336128      0.02002503365745
  C   -2.29234611085869      2.26308518743576     -0.01021625502070
  N   -2.68190947571633      3.54791301486581     -0.07501630436458
  H   -3.65896491534953      3.77377511374307     -0.09238071854674
  H   -1.98735322649178      4.27106347602221     -0.08219680829230
  N   -3.25071735780219      1.37347036231539      0.01480760660968
  C   -3.21661967375433      0.02215982434526      0.05427192461804
  N   -4.46239272319337     -0.50619436650447      0.15684123425622
  H   -4.61740832106610     -1.49152489264693      0.03955636848481
  H   -5.23203012474828      0.11788469480219      0.00139382868670
  C   -2.11026806455860     -0.85122441656802      0.01676453092898
  C   -2.35858111972105     -2.22781300823619      0.01697388612115
  N   -2.55908205878678     -3.37821780605336      0.01387218532242
  C   -0.77899465746478     -0.36235168952819      0.00301075984303
  C   0.56763330403815     -0.76455424191918     -0.00410333918520
  C   1.34860682549388     -1.97405497337677     -0.02981414010689
  N   0.69100492549518     -3.15224574221888     -0.07161027019090
  H   1.20053826705483     -4.01657489095050     -0.06284486632013
  H   -0.31130520414441     -3.21874107269391     -0.03516899716791
  C   2.73335288631976     -1.95491703422018     -0.02360715606151
  C   3.66530733285939     -0.89231993171221      0.00212814854690
  H   4.69358334650521     -1.23131922414838      0.00179249565517
  H   3.19578957264734     -2.93552517639785     -0.04305225237235
  H   2.30795853367524      2.28036317776698      0.05009138325253
