25
Coordinates from ORCA-job ./opt_b97-3c_parallel
  N   -4.84691134301789     -1.32589201253788      0.00162696240635
  C   -3.91425734426442     -0.63029607702389      0.00105712274750
  C   -2.73407188539450      0.14715194292599      0.00042968636141
  C   -2.94716709321944      1.56043241171378      0.00049443622976
  N   -2.19128733803407      2.63225374711335      0.00003693162692
  C   -0.83728292736306      2.61740625993901     -0.00070008178968
  C   -0.03214283633164      1.52547184441122     -0.00104416655953
  C   1.39220943007056      1.26914631005931     -0.00177834249700
  N   2.44717742382915      1.99792404818229     -0.00243886974628
  C   3.69326920125010      1.40619825680793     -0.00311227503634
  N   4.10612770362166      0.16684068372800     -0.00310800556676
  C   3.42186687348394     -0.99127056897032     -0.00249970020249
  C   2.04939557750494     -1.23907161362520     -0.00181234218430
  C   1.61523292151552     -2.58918085458391     -0.00138832266593
  N   1.19294647640156     -3.67152365957244     -0.00112626094724
  C   1.09509234346821     -0.21456832465944     -0.00149983271775
  C   -0.26756176603862      0.07306221199115     -0.00081088817551
  C   -1.52170837436433     -0.59575685627866     -0.00014336598334
  N   -1.56416849407461     -1.92630824164060     -0.00005697572911
  H   -0.72936205400410     -2.49096948263342     -0.00043046769028
  H   -2.44835920289870     -2.41038917818283      0.00042011898586
  H   4.05810895080700     -1.86894995936278     -0.00260835234891
  H   4.49036655406986      2.14067257250273     -0.00375715080335
  H   -0.36932946179596      3.59527856436973     -0.00103495802926
  H   -4.00753083602114      1.80045618012690      0.00106430601527
