31
Coordinates from ORCA-job ./opt_b97-3c_parallel
  N   6.03271202763613      0.86189036704645     -0.06416574324077
  C   4.87763297324991      0.74662912431200     -0.05608478311008
  C   3.45764603693540      0.61104768200361     -0.04527007062357
  C   2.75425569532286      1.82072117437962     -0.12476337028786
  C   1.37502777083229      2.03936878194629     -0.12002912995539
  C   0.41559680956716      1.06992485410682     -0.04005309483560
  C   0.53311765662217     -0.44316394462045      0.01132988422334
  C   1.68947720468901     -1.20851159001220      0.06184815096747
  C   1.55938801838227     -2.61954555716691      0.15997263834975
  N   1.41548713091291     -3.76929075833576      0.24554656816967
  C   3.00376627489852     -0.71437045437213      0.04105861099529
  H   3.77947335601963     -1.46403614295970      0.09394707632357
  C   -0.87038859429379     -0.53443889382933      0.00888799983143
  C   -0.98615949747822      0.92809650524261     -0.03181591670097
  C   -2.10384378821997      1.77366659699084      0.02998797680519
  N   -1.90151784889824      3.12059751150234      0.09060778678555
  H   -2.71572018516017      3.66855546234268      0.31000707629720
  H   -1.02895354425122      3.45814464154347      0.45375022640744
  N   -3.37924010649910      1.40922108419189      0.00742531714300
  C   -3.85333347274086      0.15651386166296     -0.08536157125146
  N   -5.21451509574565      0.15811156809955     -0.21718491811027
  H   -5.67117358743184      1.03250575448617     -0.02929840927613
  H   -5.73970841061550     -0.67820114720220     -0.04173254646709
  C   -3.25131287623853     -1.11538013055924     -0.07533268533654
  C   -1.90653233613551     -1.49297912397316     -0.02999302307715
  N   -1.61598107133559     -2.81058790993293     -0.06011296803643
  H   -0.67744560703159     -3.15598596361659      0.04257023742816
  H   -2.35258438194111     -3.48917396364205     -0.01346834192621
  H   -3.95236103785108     -1.93929652714100     -0.14524991740730
  H   1.06125851636089      3.07333029077131     -0.21106471822714
  H   3.37254414143884      2.70470997793505     -0.19658352205713
