26
Coordinates from ORCA-job ./opt_b97-3c_parallel
  N   -4.42787995963129     -2.13714232063107     -0.00014476217226
  C   -3.52968451179146     -1.39606183042446     -0.00000379599788
  C   -2.49444937697551     -0.43753169049551      0.00037592704624
  C   -1.19061655108231     -0.92054763329474      0.00017791308166
  C   -0.06462937842660     -0.12884874454477      0.00039453666410
  C   0.03662743341774      1.34327219025055      0.00091139052546
  C   -0.93740780688016      2.30086729486335      0.00126288586845
  N   -2.26229583722617      2.12452234589479      0.00112435059436
  C   -2.92907725280710      0.96790430341545      0.00068644061207
  N   -4.25825945271319      1.14808650206078      0.00056579905980
  H   -4.91313612151586      0.38496531937332      0.00030550674140
  H   -4.59302653901919      2.09579734642978      0.00082998985590
  H   -0.62962977298691      3.34151609482620      0.00170024576597
  C   1.46338121463381      1.24725780552817      0.00092456995902
  N   2.44909042101678      2.09076776924265      0.00127621867261
  C   3.72822732637470      1.65829753113930      0.00115014605182
  C   4.27334012018721      0.37678244273817      0.00066854237329
  C   3.69651532213184     -0.89371575235126      0.00016607923907
  C   2.33274583106404     -1.22147982291822      0.00002739708237
  C   1.94818087808869     -2.58881420389176     -0.00046722076396
  N   1.59203412886393     -3.69348699450695     -0.00066102893785
  C   1.33547895554847     -0.26115386723704      0.00035500625040
  H   4.38327998965025     -1.72902186988272     -0.00014178409670
  H   5.35694350018010      0.37278485033121      0.00069234340638
  H   4.44960437456899      2.46720948035699      0.00148535064504
  H   -1.06952283417077     -1.99646051037227     -0.00017279312678
