28
Coordinates from ORCA-job ./opt_b97-3c_parallel
  N   4.37648718686230      0.00190166040729      0.12139228713823
  C   3.01660101881498      0.00090727411773      0.03931229799261
  N   2.52318232564483     -1.24763539418754      0.02261836405669
  C   1.23615536669760     -1.60157177421816     -0.01592624558135
  N   1.02702337225858     -2.95058522214524     -0.08229697259670
  H   1.82196467843072     -3.51501888630924      0.16506986177726
  H   0.13352756663787     -3.30008591280138      0.21366758342924
  C   0.15067313785836     -0.72991343010523     -0.02527693422434
  C   0.15025960219527      0.72875468529447      0.05487476855149
  C   -1.26678015702500      0.75256972868874      0.05217377620714
  C   -1.26681980436579     -0.75323303126393     -0.03404969597550
  C   -2.31769790321196     -1.62790661330887     -0.11528581166758
  C   -3.66945678575205     -1.26468700342365     -0.10136732835924
  C   -4.24188033749194      0.00136706365594     -0.00273581646965
  C   -3.66906279160499      1.26715079052033      0.10064729777316
  C   -2.31733506639878      1.62874393454473      0.12526999845782
  H   -2.10385246314561      2.68876545559986      0.22390800860307
  H   -4.37253946670597      2.08812900139593      0.17015894340352
  H   -5.32650241725379      0.00183233285986     -0.00713228419277
  H   -4.37309679906784     -2.08504882880327     -0.17630588193332
  H   -2.10575638703925     -2.68856611495378     -0.21074951409885
  C   1.23449822607666      1.60172457123146      0.02039255344275
  N   1.02066479189842      2.95131196560636      0.03255169143325
  H   0.13301214184608      3.28770068379988     -0.29466286820762
  H   1.82024177286939      3.51023360973241     -0.21202242151266
  N   2.52208394991490      1.24920789370788      0.00435515537710
  H   4.85240546585078      0.86865118131859     -0.04523573787658
  H   4.85439882850626     -0.86303886956116     -0.04948644514721
