31
Coordinates from ORCA-job ./opt_b97-3c_parallel
  N   -1.32448144694483     -4.10112522095173     -0.07360957907904
  C   -1.32706042624395     -2.93961783786176     -0.03270849800758
  C   -1.42379920102497     -1.52857445994565      0.00981013358165
  C   -0.29023392796345     -0.79063835507736     -0.00175189097323
  C   -0.01132892446477      0.64158908674000      0.02205905806107
  C   -0.92491036386609      1.73083277596304     -0.00375923085321
  C   -0.41512640242059      3.03334923796899     -0.09246828226402
  N   0.00739821673792      4.11827408479149     -0.17383578443116
  C   -2.32024436132863      1.59274553046948      0.03184990471425
  N   -3.08260197210262      2.73565785418889      0.08780441486757
  H   -2.63186901779370      3.61231262674525     -0.11481090321006
  H   -4.02565063037903      2.67687275004629     -0.25183042087934
  C   -3.08367094484965      0.39175581441097      0.06672998029043
  C   -2.76728012327918     -0.94487291904234      0.05934841808775
  N   -3.77593225709185     -1.85431183402614      0.14796866857660
  H   -3.59649052692990     -2.82754941777416     -0.02488174603144
  H   -4.72619814384794     -1.55210260089977      0.04278789839797
  H   -4.14993799253700      0.57730166322172      0.14174754329160
  C   1.36565744393289      0.36735155814615      0.01528320838563
  C   1.15456318397965     -1.07753139686839     -0.01719511547779
  C   1.94377136119350     -2.16709539934452     -0.04912222902158
  N   3.31789338176134     -2.19305679127597     -0.07310466406540
  C   4.05627700021590     -1.11900417219181     -0.03955600795775
  C   3.81565382024376      0.28512222026489      0.02537920838257
  C   2.64259427206019      1.02142781903529      0.05196505504125
  N   2.68825796155747      2.36644591702011      0.14122683388919
  H   1.86762015697274      2.94088479321040      0.05697280246306
  H   3.57302238621804      2.83894874719341      0.10798150056777
  H   4.72802916340316      0.87169847564577      0.05350664448884
  H   5.12215690774220     -1.34293634014697     -0.06696376650488
  H   1.48077418874935     -3.14586049215562     -0.06597753503072
