26
Coordinates from ORCA-job ./opt_b97-3c_parallel
  N   -5.32550633411320     -0.68798656908975      0.00016232800408
  C   -4.25209893763239     -0.23745324915461     -0.00001907513751
  C   -2.91612411522684      0.21872621940783     -0.00015458277822
  C   -2.74851519374154      1.63354973374895     -0.00065650717192
  N   -1.73446154069104      2.47020637149283     -0.00086752217455
  C   -0.42885390419740      2.11526933283485     -0.00062052777235
  C   0.07006727941320      0.85054755127104     -0.00012742760028
  C   -0.55892814103079     -0.48151246420072      0.00019719347326
  C   0.69003898005318     -1.12100867049206      0.00034481147787
  C   1.35947658568653      0.21348131669841      0.00005005543392
  C   2.68250467213084      0.53286399148539      0.00004872626599
  C   3.06583138655938      1.89994080461640     -0.00014589000845
  N   3.38963247739147      3.01419339997971      0.00000509793204
  C   3.74044814670534     -0.45019154845262      0.00030735059053
  N   3.70365285096107     -1.75298357946872      0.00040504273500
  C   2.65076148810088     -2.59745330967276      0.00035242082039
  C   1.28405855473816     -2.37181639285362      0.00038685675806
  H   0.66337052798307     -3.26222175565582      0.00037791325533
  H   2.95439876651505     -3.63858644040143      0.00031543100858
  H   4.74060837000861     -0.02700388349825      0.00041886652387
  C   -1.92315266353493     -0.80462877731168      0.00028747316678
  N   -2.30184190571703     -2.08924519965733      0.00064059164555
  H   -3.27607183496668     -2.34386191641048      0.00109362898816
  H   -1.62427648931724     -2.82720814690853      0.00171559171398
  H   0.26532685224221      2.94807669204199     -0.00086250191962
  H   -3.70686919941985      2.14730579965083     -0.00090447413047
