27
Coordinates from ORCA-job ./opt_b97-3c_parallel
  N   -4.51077556610415     -0.50661995192202     -0.14110746323246
  C   -3.14609461445382     -0.39158592973858     -0.06560444362865
  N   -2.55828749656341     -1.59685788794408     -0.04311197768347
  C   -1.23904187836228     -1.81659373277545     -0.01554057332066
  C   -0.22838944357063     -0.89854489539548     -0.00088581514201
  C   -0.24073630376105      0.56755494679103     -0.02958825378448
  C   1.16604083066315      0.61726503489842     -0.02203810044350
  C   1.20955914476167     -0.88239120247697      0.01205937402122
  C   2.25705806852103     -1.74472701980064      0.04292776564719
  C   3.61687108538223     -1.35773441198201      0.04317667651246
  C   4.16013445071777     -0.08980314772004      0.00202299524290
  C   3.55867226949908      1.18225781452646     -0.05155521463128
  C   2.21436193531763      1.51964349404031     -0.06481494617352
  H   1.98590568723782      2.57951913781623     -0.12658149807366
  H   4.25170817889106      2.01390228764891     -0.09003271216160
  H   5.24446601451021     -0.06466385579013      0.00629714455302
  H   4.33187074096143     -2.17099195108960      0.07560846939511
  H   2.04700028319648     -2.80848359470090      0.06919674174778
  C   -1.35188341928452      1.41748210494034     -0.03214810325772
  N   -1.14031997733546      2.77203501618776     -0.06772679827079
  H   -0.24813771617747      3.09544500806386      0.26053983990870
  H   -1.90747564280193      3.36632539533577      0.19404893925247
  C   -2.66151719933389      0.94067989304356     -0.04798190105315
  H   -3.43215472275357      1.70365867231842     -0.08009089222967
  H   -0.97022501758732     -2.86975366613297      0.00140232883991
  H   -4.86597747278555     -1.42760416697126      0.04845863317388
  H   -5.09157089038449      0.26570953502905      0.12933867139194
