30
Coordinates from ORCA-job ./opt_b97-3c_parallel
  N   -4.03552898920649     -2.34363343685321      0.01794568909501
  C   -3.11058820366911     -1.30409640543568     -0.00926159401582
  C   -1.74681427988596     -1.71964944889202      0.00363745577633
  C   -0.68605997952622     -0.88550918741599     -0.00022040771872
  C   -0.60046505526579      0.60934503524431      0.00199355838840
  C   -1.61172611002961      1.54516591017321      0.06044514180903
  C   -2.97650279372324      1.25539460318440      0.06926378383950
  N   -3.85179507270072      2.34591910859521      0.06369230134772
  H   -4.74458399011605      2.17296269198777      0.49574211228843
  H   -3.45008553847032      3.20329899486067      0.40494173587166
  C   -3.60259870296197     -0.00978295021088      0.01138656823243
  H   -4.68712223846086      0.04833498201570     -0.01759942161347
  H   -1.34074763102097      2.59527685339291      0.11568151940313
  C   0.80375594152707      0.51847381699393     -0.00468686651644
  C   0.75568249547585     -0.95104532471648     -0.00507035452853
  C   1.75899437152774     -1.86056019353279      0.01842530121453
  N   3.08533462592491     -1.60064212969351      0.05557794410401
  C   3.63325855424096     -0.38651885346863      0.03076887051054
  N   4.99307181227632     -0.42732613834919      0.08317981907739
  H   5.42108942681860     -1.30456780384493      0.31451688491116
  H   5.48656718958990      0.42993640678549      0.24703315374233
  N   3.20579470621907      0.90609228639547     -0.08012752050767
  C   1.94782218623735      1.32388701341935     -0.08976367610867
  N   1.79527131804957      2.68151253241859     -0.16304762531986
  H   2.62149260693376      3.18101869925970     -0.44744595205806
  H   0.92816894215936      3.02899372340325     -0.53275141476333
  H   1.51582770668804     -2.91962274395416      0.02179012454658
  H   -1.56113648199683     -2.78851454496170      0.01804146842528
  H   -4.96570053896287     -2.10716023123935     -0.28397351229060
  H   -3.72095209247121     -3.20810568216108     -0.38923335874228
