30
Coordinates from ORCA-job ./opt_b97-3c_parallel
  N   6.02672084837525      1.35996152892009      0.00112303024539
  C   5.01695188522507      0.78627690242337      0.00095111366681
  C   3.80159908709650      0.05134415248261      0.00042681370786
  C   2.63992770697894      0.78335338458316      0.00036116377373
  C   1.35644762020025      0.21543203381620     -0.00015896350155
  C   0.95571008810027     -1.19304980575602     -0.00064129096741
  C   1.63446011927059     -2.34746100204367     -0.00081806385299
  C   3.07624244223505     -2.40320991988329     -0.00051369533874
  C   3.97958619427239     -1.39667309183896      0.00001336484161
  H   5.01829059364446     -1.69832090915557      0.00015784080928
  H   3.49466483431947     -3.40167153716415     -0.00073515968251
  H   1.09754913345216     -3.28568888168881     -0.00121450855164
  C   -0.45137869024732     -0.72218430334876     -0.00084789069761
  C   0.01398300751730      0.64041933241966     -0.00040017169878
  C   -0.74339051892998      1.84000655357541     -0.00030094731646
  C   -0.02659469883492      3.06168363576485      0.00018845577821
  N   0.61532569343939      4.02955841382868      0.00102421368858
  C   -2.11404572531316      1.86869244333901     -0.00066473281318
  C   -3.08024028583425      0.81565058651729     -0.00109538279480
  C   -4.42386298672803      1.26078071352785     -0.00131868257393
  N   -5.54794136410406      1.55985834905145     -0.00155058142543
  C   -2.94045133849163     -0.58427058425647     -0.00134760106835
  N   -4.03918671333062     -1.35428438883296     -0.00173832152466
  H   -3.97410056686940     -2.35717144914882     -0.00188406795247
  H   -4.95782746951618     -0.94318462691181     -0.00182957074341
  C   -1.67154881459073     -1.31688599522481     -0.00123773571528
  C   -1.73094956263226     -2.72962635860098     -0.00152853686009
  N   -1.82567365177355     -3.88814573313012     -0.00162559030012
  H   -2.55729807148906      2.85425439604000     -0.00058513028725
  H   2.72055722355808      1.86233116359552      0.00072986975514
