28
Coordinates from ORCA-job ./opt_b97-3c_parallel
  N   1.19992036812854      4.14883031580511      0.00218017012930
  C   1.49442763911486      3.02599944138073      0.00139631236477
  C   1.81616586335086      1.64093645488018      0.00045875349199
  C   0.76374454697028      0.75151641483683     -0.00038402285836
  C   0.76271611308462     -0.75275002281872     -0.00149898679055
  C   -0.65010237745452     -0.74030061204631     -0.00176878808257
  C   -0.64908829175471      0.74099731377749     -0.00064679334991
  C   -1.70301407921231      1.62995632611933     -0.00012839313979
  C   -3.04183842503008      1.28819733011698     -0.00064716243350
  C   -3.64522686162463      0.00241576040763     -0.00169666929033
  N   -5.00162605678326      0.00334989053147     -0.00122981780164
  H   -5.52304025280900     -0.85261077115402     -0.00477474021145
  H   -5.52185558231467      0.86003564214330     -0.00343530099708
  C   -3.04360790132523     -1.28419417683164     -0.00264032162295
  C   -1.70525549216894     -1.62780361472560     -0.00262667814523
  H   -1.47493958739044     -2.68653629749750     -0.00343057218881
  H   -3.74193368792545     -2.11234895547315     -0.00327285377939
  H   -3.73902172445143      2.11731450052470      0.00001024603912
  H   -1.47122980106392      2.68836912432693      0.00069779863146
  C   1.81391804970993     -1.64360907838204     -0.00191522846857
  C   1.49027973486013     -3.02822954680243     -0.00292578716177
  N   1.19422419099543     -4.15065349322683     -0.00368957451366
  C   3.17676278411311     -1.27668072655500     -0.00135172953376
  C   3.73429935587812     -0.00265042068959     -0.00032196589122
  C   3.17850853245352      1.27214214830916      0.00046746053269
  H   3.88137032736958      2.09330268752411      0.00120397832927
  H   4.81802782969933     -0.00339374310049     -0.00008363239728
  H   3.87849941338027     -2.09880332458067     -0.00176920726079
