29
Coordinates from ORCA-job ./opt_b97-3c_parallel
  N   -5.25444285985923     -0.69061508284001     -0.00001983847701
  C   -4.09359645425445     -0.60827428623799      0.00064203857902
  C   -2.69116280731926     -0.42506218405088      0.00104275128477
  C   -1.93789265329840     -1.64458166350920      0.00140430280290
  C   -0.58893547255072     -1.87277640427055      0.00171453056330
  C   -0.11215763400377     -3.20612802816554      0.00202158592291
  N   0.33897302153194     -4.27677636726331      0.00218791075703
  C   0.38136665885160     -0.83101889460365      0.00175457855091
  C   0.18078371285270      0.58771315253527      0.00156676665901
  C   -0.90320522296092      1.40675178166927      0.00127288802196
  C   -0.69763224172252      2.80385070971406      0.00115248740460
  N   -0.57742737294324      3.96087432864992      0.00135621195684
  C   -2.28831334136535      0.92092966885325      0.00097709011658
  N   -3.22095427744273      1.88566217211617      0.00059375650087
  H   -4.20073304972103      1.65586347932466      0.00032241731117
  H   -2.96483182172276      2.85743681288060      0.00054552849385
  C   1.65769763515487      0.78398544024239      0.00179081454018
  C   1.78171699583724     -0.66654088272700      0.00190879654532
  C   2.95108688366590     -1.45872691710064      0.00207234175251
  C   4.21206853171761     -0.94697399506647      0.00218068465264
  C   4.66232973870220      0.42168488871414      0.00218252557183
  C   3.96589245493079      1.58720765329380      0.00205381185288
  C   2.54148060913896      1.79466314717107      0.00185288741894
  H   2.18316735843874      2.81470752715540      0.00174217614505
  H   4.55929148511660      2.49335252130495      0.00209085169921
  H   5.74029016568065      0.52604076202057      0.00230781150576
  H   5.01360636817802     -1.67557730159359      0.00228888604022
  H   2.83332094330896     -2.53463986877158      0.00210012042640
  H   -2.55957604014239     -2.52860453964510      0.00140440260040
