28
Coordinates from ORCA-job ./opt_b97-3c_parallel
  N   4.31817699599256      3.27706504554868      0.05317938946310
  C   3.60667754828880      2.35931174499711      0.03855820116858
  C   2.69564645693072      1.26820821604609      0.02116167637057
  C   1.27943092748045      1.65166332844827      0.02906746268177
  C   0.29720054809773      0.75029556568269      0.01114351488517
  C   0.24786782042705     -0.71069095979620     -0.01635505538901
  C   1.30432585326902     -1.63711953016290     -0.02879569651884
  C   2.63316322621941     -1.30149295227210     -0.02093410204086
  C   3.56335405699271     -2.37260003815215     -0.03555945573380
  N   4.33895306553064     -3.23798915339395     -0.04721060568768
  C   3.24786527183203      0.02645730540146     -0.00001539025476
  H   4.32844045641751     -0.00282482969980     -0.00131472449512
  H   1.05066300866249     -2.68945328148830     -0.04554141404844
  C   -1.15977473094127     -0.73755578301525     -0.02091723948678
  N   -2.09948094235563     -1.67907424339628     -0.01997280376512
  C   -3.37297122610211     -1.31102289539817     -0.02077937563898
  N   -4.25251816424498     -2.35126984644780     -0.06876858660411
  H   -3.85879820500594     -3.26277298205882      0.08664275288336
  H   -5.20731634520640     -2.21885227208660      0.20793286853127
  C   -3.97273065174554     -0.00770190470619     -0.01911976223779
  C   -3.42126458677067      1.25594014780225      0.01171793185141
  N   -4.22355140621855      2.34716053218039      0.04530084568132
  H   -5.20943766894863      2.27626568474330     -0.12209644705467
  H   -3.78493388561366      3.24107248346590     -0.07941203362696
  N   -2.08298403031982      1.64869651100184      0.03398903513020
  C   -1.19042776668073      0.73264912864329      0.01310614981008
  H   -5.05631100120353     -0.02003249339632     -0.05074601381539
  H   1.04939986601639      2.70661153330960      0.05026465924148
