30
Coordinates from ORCA-job ./opt_b97-3c_parallel
  N   -5.89773466271182     -0.41918250308364      0.04988671561691
  C   -4.73451588056781     -0.42357517933772      0.02510700637284
  C   -3.31871316164215     -0.37128759590115      0.00261606414905
  C   -2.69084534150259     -1.62860009715957      0.04919875495829
  C   -1.34271290372446     -1.97376125739476      0.05248190899437
  C   -0.34205696097598     -1.03930048726245      0.01727776403725
  C   -0.48815022890813      0.48755046311620     -0.00541616743369
  N   -1.48098638459794      1.33233396483771     -0.03617483650235
  C   -2.76993877196218      0.95285343500012     -0.05203496332184
  N   -3.63729419225081      2.00429335363061     -0.16658147454311
  H   -4.60883627731621      1.87621292672708      0.05569016516518
  H   -3.24537669813097      2.90673015882499      0.03267702379084
  C   0.90781098272298      0.60557772585601      0.01098641824778
  C   1.04911822413714     -0.86041928236785      0.02629433360574
  C   2.23623355983897     -1.60058922690457      0.00663112756562
  N   2.18109068888716     -2.96170738336657      0.02348872264528
  H   3.03772510775174     -3.43628781804163     -0.20469986331755
  H   1.33020089983655     -3.41058114527103     -0.26264091138348
  N   3.46568989839867     -1.09210911480130      0.00258759704780
  C   3.81893944967649      0.21215721577554      0.01527993736636
  N   5.16885161950501      0.34798865234607      0.00210584338446
  H   5.73380868573719     -0.46918844809850      0.13597527506796
  H   5.55881741636351      1.26138956242467      0.13952075400592
  N   3.20076867107439      1.40246127101347      0.01234977533353
  C   1.87829850731000      1.60254463123332      0.01313164814200
  N   1.48345622060878      2.89709962818707      0.04574632306917
  H   2.17482262082038      3.60017676324200     -0.14392786422789
  H   0.51398597899330      3.11170716361203     -0.11229592228465
  H   -1.10934041167723     -3.03137986979173      0.10411500421487
  H   -3.38413662079397     -2.45821370804445      0.09344455683338
