28
Coordinates from ORCA-job ./opt_b97-3c_parallel
  N   5.63587934687663      0.59341052030204      0.01219851515994
  C   4.47456450985098      0.50847072877020      0.02013524563516
  C   3.07278828030321      0.32964243904823      0.02484860597606
  C   2.32496450971195      1.56724305176235      0.02428276099695
  N   1.04792535619813      1.83637016092112      0.01333894307056
  C   0.13840651402810      0.85691661439452      0.00184552945507
  C   0.23718229820843     -0.63366653994579      0.00075653989812
  C   1.28614368886231     -1.46792785290799      0.01426929605752
  C   2.65244721472289     -1.01258133771930      0.02697369646896
  N   3.58128520089973     -2.00016175186567      0.07068515468208
  H   4.55920894360932     -1.78354556885741     -0.02188767891903
  H   3.30806303694201     -2.94882091160577     -0.10105551418571
  H   1.12292039268334     -2.53998010524928      0.02291417562402
  C   -1.22014791935193     -0.69354607808048     -0.01249452498974
  C   -1.25355852405998      0.77704175567433     -0.01107863371390
  C   -2.37475054502539      1.63033300730513     -0.03276859645299
  C   -3.66928353760751      1.22904963608222     -0.04774539361357
  C   -4.23742295162068     -0.11581800582130     -0.03402193556758
  N   -5.61546097257605     -0.10340191421320     -0.10198579265329
  H   -6.09284923283090     -0.96267848451732      0.10890467268931
  H   -6.08710271468229      0.71298398853242      0.24607898677842
  C   -3.59719086960874     -1.33319885313043     -0.01547959193763
  C   -2.20184179709557     -1.61782843044485     -0.01795249408148
  H   -1.92752969291966     -2.66656021097190     -0.01078075144774
  H   -4.24575907448584     -2.20198626344977     -0.00336139766357
  H   -4.41029045242890      2.01872895876060     -0.09014205644552
  H   -2.18402497094600      2.69724354918898     -0.04274437044254
  H   2.96774627384233      2.44183035953840      0.02948573122213
