29
Coordinates from ORCA-job ./opt_b97-3c_parallel
  N   -1.40148629095643     -4.14363099808300      0.01800351630822
  C   -1.58531928784669     -2.99694090656483      0.01700758402340
  C   -1.80084963809510     -1.59544852954166      0.01500965495229
  C   -0.73657525461277     -0.74570319001193     -0.00440387476637
  C   -0.72862658037383      0.77381739358955     -0.00819483158112
  N   -1.65166684700121      1.72231030108522     -0.00710182948421
  C   -2.94699134583255      1.44352709236084      0.01946942137998
  N   -3.77554388316278      2.54818532949700      0.08245804467216
  H   -4.70436926894186      2.44876224703936     -0.28829409039590
  H   -3.32491564925951      3.41083025357090     -0.17207216291812
  C   -3.61399536141889      0.17271827677557      0.04468980991147
  C   -3.14926907219142     -1.10990535723747      0.03760161295145
  H   -3.90863891317414     -1.88064019551582      0.05705714088986
  H   -4.69442973208324      0.25202225542365      0.08573554741305
  C   0.65842724099777      0.74996010041864     -0.02732872230298
  C   0.69080354351317     -0.72312549991444     -0.01416690014851
  C   1.73783086418542     -1.59903367066577      0.01069683381098
  N   3.04528334351137     -1.30325750175095      0.00361068227756
  C   3.57896718070946     -0.07453937290739      0.01224231746107
  N   4.94224380215318     -0.13189989634732      0.02035377162740
  H   5.49345001021899      0.67125752303304     -0.21854565933449
  H   5.33994568428348     -1.04057447603598     -0.14131095122199
  C   3.05072339345388      1.25169864028494      0.04863089413842
  C   1.72830664014641      1.66518457461155      0.01171892037973
  N   1.40103440563412      2.98226918890901     -0.01148543546466
  H   2.08584485002624      3.67505109309069      0.22966542570660
  H   0.43392808140426      3.22709235562831      0.12111188055709
  H   3.79342632433314      2.04053265180510      0.09266932567560
  H   1.52119106867935     -2.66201755374693      0.03180873688216
