33
Coordinates from ORCA-job ./opt_b97-3c_parallel
  N   5.89566708300874      1.13853565986250      0.04160169670472
  C   4.76607034216474      0.86534230178594      0.00733689891622
  C   3.37198721350500      0.60610007284914     -0.02096271428507
  C   3.03883433598889     -0.76195483053687     -0.09634236479682
  C   1.80571355186344     -1.40857923034085     -0.10214576374391
  C   1.84757473209318     -2.82399878500038     -0.16964500727802
  N   1.83805687466694     -3.98503813751352     -0.22626266153585
  C   0.56238451736923     -0.76991349391479     -0.05600790652115
  C   0.30581433834537      0.71188126161503     -0.03797725834173
  C   1.13204823584295      1.77932902517181      0.03085011423013
  C   2.55541239684356      1.75912322346008      0.04684910460391
  N   3.15676137862537      2.98529730788479      0.08282934454060
  H   2.61867387864483      3.77384091296193      0.39102424976541
  H   4.14561253333320      3.04371990756519      0.25890985031418
  H   0.68819706471953      2.76594644983568      0.09972112202992
  C   -1.10107878909231      0.45227795732911     -0.02829431671113
  C   -0.81789994675396     -1.00339880115261     -0.02279272551427
  C   -1.71992488940916     -2.09122308489888      0.06173029057045
  N   -1.26227267969934     -3.35387548325500      0.09120312388044
  H   -0.28672739854026     -3.58476480771486      0.00161690162070
  H   -1.90710607808200     -4.12181199631859      0.12798221134975
  C   -3.11011411025950     -1.89433730546867      0.14050152691648
  C   -3.85858230252100     -0.72978130989163      0.12403112783428
  C   -3.55562728606798      0.62893799009785      0.03750033785350
  C   -4.64595434574407      1.52246049978185      0.00385932307072
  N   -5.50401799329377      2.30958398114025     -0.03596146646685
  C   -2.24350848734789      1.21720321949878     -0.04885788998421
  N   -2.16105081176674      2.58067112731507     -0.10693977553022
  H   -3.01140058795587      3.08820053763761     -0.29137415176474
  H   -1.34562020305093      2.97407675785540     -0.53886781666259
  H   -4.92459714899703     -0.91556235220170      0.17864106101070
  H   -3.69651803145937     -2.80225546999112      0.21319888071350
  H   3.89652917242625     -1.41717577594848     -0.14031635318907
