31
Coordinates from ORCA-job ./opt_b97-3c_parallel
  N   4.25213017895044      2.62085979784074     -0.08580026720309
  C   3.46358640738121      1.75938184504520     -0.05961620759208
  C   2.50911426854397      0.73369369229179     -0.02598224663777
  C   1.13987939677142      1.15415397320396     -0.00324522512497
  C   0.08276919382310      0.26739219699391      0.01018941886142
  C   -0.03068123402256     -1.20323061489413     -0.02705432584866
  C   0.97752743994414     -2.16842638989204     -0.00655456987409
  N   0.61496120235139     -3.49293112469442     -0.04593730838873
  H   -0.31690764385254     -3.70694455510231      0.26246655656370
  H   1.29930024221582     -4.16412281413544      0.25722316905088
  C   2.33364001055640     -1.84705467269197      0.00967948463202
  C   3.00530437407552     -0.60611276560135      0.00024548453696
  N   4.36466675188462     -0.71665586320832      0.05853416946427
  H   4.78828510238069     -1.59987144756174     -0.15442384664312
  H   4.93774132730151      0.09500992620018     -0.09535828270926
  H   3.00058637042892     -2.70130615441796      0.05035456978461
  C   -1.43207895428497     -1.14480652286182     -0.02171344937202
  C   -1.32300559828246      0.37642510639017      0.01945215193953
  N   -2.16870494534484      1.36060230028436      0.05440936495305
  C   -3.51207297827074      1.11342382279561      0.05813207959387
  N   -4.25621862538375      2.25412203205560      0.19632652771773
  H   -3.80062763146986      3.12384925983545     -0.01146886721203
  H   -5.23055112772543      2.17553089484393     -0.03190274127773
  N   -4.23314984018313     -0.00175512714751     -0.02776205276902
  C   -3.85058314903142     -1.27448201814709     -0.09468092444029
  C   -2.58976378902804     -1.87903816263891     -0.08852945713895
  H   -2.57115783122129     -2.96111404000075     -0.16720848877748
  H   -4.69134592517625     -1.95926343478853     -0.17203657582119
  N   0.85989750979727      2.47751755467313     -0.03743160557595
  H   -0.09897245346604      2.76195556641640      0.07198695709271
  H   1.58100776043692      3.15992868491383      0.11470992011570
