28
Coordinates from ORCA-job ./opt_b97-3c_parallel
  N   -5.02772408728007     -1.57149505045361      0.00096875194456
  C   -4.00523457944415     -1.01469147381737      0.00086310546378
  C   -2.80728190360008     -0.26940573150935      0.00074461217019
  C   -1.61496740219283     -0.99273495109589      0.00041738210994
  C   -0.36573176566054     -0.42688350278409      0.00036342393707
  C   0.02035404346318      0.99749224995229      0.00051648092259
  C   -0.75862642159118      2.12719817681219      0.00065886851109
  N   -2.08724064793098      2.19788768305717      0.00097704701081
  C   -2.96637279710184      1.18476963801634      0.00116023173907
  N   -4.23304073561817      1.62480464515471      0.00179504639639
  H   -4.37371563022151      2.62003950192017      0.00200111995727
  H   -5.02584947537845      1.00601388284548      0.00197962108910
  H   -0.26529584676789      3.09375751237990      0.00052956144085
  C   1.39319634877414      0.62954035848394      0.00018367396384
  C   0.99633186028759     -0.80784265581916      0.00004234138206
  C   1.77396927129381     -1.95254866169359     -0.00032528539563
  C   1.09304988379493     -3.20080860943864     -0.00054737601467
  N   0.50868410594651     -4.20314817363576     -0.00097628111871
  C   3.17785896982753     -1.95965029137414     -0.00056015783457
  C   4.05860560185622     -0.87860377748909     -0.00053346884420
  C   3.85650282196501      0.49264137007039     -0.00029255597945
  C   2.64078821032088      1.21317273182582      0.00003239770289
  C   2.70368795470036      2.63306945663860      0.00021629549870
  N   2.73348814691877      3.79304323414640      0.00041457684378
  H   4.75110460595736      1.09959688730075     -0.00036637048595
  H   5.10255959213451     -1.16706905258137     -0.00076081902312
  H   3.63702795152458     -2.93821526794075     -0.00081807957657
  H   -1.69970994977772     -2.07183250157131      0.00020105688885
