30
Coordinates from ORCA-job ./opt_b97-3c_parallel
  N   -3.76028559327239     -2.20549251961702     -0.17346390814313
  C   -2.81639356065104     -1.19080775234506     -0.09633858247867
  N   -3.34060271564571      0.01678596288146     -0.00385701917602
  C   -2.77960850912540      1.22431457064017      0.10460751124127
  N   -3.72056367058156      2.24585734485148      0.18754877975325
  H   -3.43500556467900      3.07020522708144      0.68828520780603
  H   -4.63185835045338      1.91381242227977      0.45627177313660
  C   -1.42879108544276      1.61281674079164      0.06918392298282
  C   -0.37545660555251      0.73862688891341      0.00188272650597
  C   -0.40038996219113     -0.77319466325831     -0.00556128142280
  C   -1.45836525529790     -1.61948621893445     -0.05870526090779
  H   -1.28922336276387     -2.69104899945318     -0.08875673925180
  C   1.02247706511514     -0.78037914255975      0.00095642489070
  C   1.03012954151761      0.70624564567911     -0.00938583482947
  C   2.09862552331590      1.60517475715815     -0.08189098051988
  N   1.83110460869677      2.94226345117040     -0.16008076461373
  H   2.62444751675345      3.51088644200164     -0.40611224148714
  H   0.94624740449947      3.22646245852653     -0.54108478740680
  N   3.40343246600471      1.31197230257265     -0.05322456921344
  C   3.91286278821934      0.07092175017239      0.03659136951452
  C   3.41952781091980     -1.21533900325087      0.07152125557228
  C   2.06514821355287     -1.66839237892676      0.05935137974884
  N   1.84919806958799     -3.02716474150965      0.06597295890398
  H   2.60319947883517     -3.59196036352015      0.41841744494058
  H   0.94744139564622     -3.33266542090670      0.38783816690788
  H   4.17788372414498     -1.98823177824940      0.12254807188041
  H   4.99991061475355      0.10312247406798      0.07765314429964
  H   -1.23089149402116      2.67892849807255      0.11560946062771
  H   -3.48617076383942     -3.03881228381336     -0.66535520001187
  H   -4.67697537174504     -1.87263530791538     -0.42254588704996
