33
Coordinates from ORCA-job ./opt_b97-3c_parallel
  N   6.01510847894999      0.12571457479814      0.00598661665868
  C   4.85074588643211      0.15794500264321      0.00957548494071
  C   3.44208886031363      0.21776916359483      0.00997536394570
  C   2.92491335217481      1.54128293252269      0.02490560415455
  N   1.64024276508008      1.98930103527639      0.02903724539233
  C   0.63014350639314      1.19355832906549      0.01208042595735
  C   -0.78765240111166      1.39241792017973      0.00982182750142
  C   -1.64612373645551      2.43777905126267      0.01242565818626
  N   -2.99036530689076      2.39617535894561     -0.02847919986164
  C   -3.73522156808592      1.30337239809073     -0.03095893171168
  N   -5.05436793775857      1.58241852920361     -0.11848928736959
  H   -5.76990444950822      0.87844490723560     -0.11406481804196
  H   -5.30929912316258      2.55324397024280     -0.14094468575791
  C   -3.43309016952436     -0.13233595029432      0.05249789692063
  C   -4.54684068969501     -0.98388442193945      0.11868431015943
  N   -5.46117418734155     -1.70778472461001      0.17123567759791
  C   -2.18264714402378     -0.79415631347190      0.02568972033134
  N   -2.15922292025681     -2.13470968021061      0.05187107664751
  H   -1.29913452914020     -2.65369788987354      0.03522998489672
  H   -3.01438044720711     -2.66391981601954      0.07715932710251
  C   -0.95950327645863     -0.07784196170567     -0.01426719064768
  C   0.41979063230998     -0.29937831982190     -0.01335838419244
  C   1.39224988414841     -1.30498080085189     -0.02643036555494
  C   0.98358367172871     -2.64975225411983     -0.06668188756725
  N   0.65012995305764     -3.76586380663751     -0.10296703178986
  C   2.78919491306886     -1.06122025006387     -0.00678328522344
  N   3.60135081668151     -2.14586204906133      0.01689596020803
  H   3.22073199320318     -3.06921019977869     -0.08380923789587
  H   4.59649272711781     -2.04955722930057     -0.07186646146847
  H   -1.22841595411937      3.43855078822369      0.03726061631191
  N   3.79377845477663      2.57177310202774      0.03852343051007
  H   3.40697569316825      3.49726549099617      0.04939002331730
  H   4.79003822873532      2.44967714045149      0.04068482754236
