28
Coordinates from ORCA-job ./opt_b97-3c_parallel
  N   5.39836062338103      1.61908082911210      0.00038006166609
  C   4.47297933027713      0.91751007602547      0.00079113837972
  C   3.32460673657401      0.08127733842512      0.00114190973846
  C   2.04665738935625      0.78322268602769      0.00066123229208
  C   0.87374300899827      0.14173534876588      0.00082240847585
  C   0.47222780404945     -1.26468087674650      0.00142553932270
  C   1.28675219755449     -2.41738578649265      0.00211827045257
  C   2.64751614231713     -2.38420553155189      0.00229679060875
  C   3.55119228552480     -1.26797435852857      0.00184775963726
  H   4.59526390425699     -1.55226830396139      0.00210284296919
  H   3.14453065435433     -3.34566497473030      0.00284735971795
  H   0.79786147305023     -3.38328047372486      0.00253218383048
  C   -0.88964350826255     -0.92609519774851      0.00105956023563
  C   -0.57346407959818      0.47892537852439      0.00046404766025
  C   -1.32471469859600      1.60525505716424     -0.00013253004386
  C   -0.70207628180945      2.87074317932846     -0.00054045709402
  N   -0.24774673731350      3.94163556251686     -0.00088906741389
  C   -2.80945542361816      1.53807267341111     -0.00044786050580
  N   -3.42116541826407      2.73461548493355     -0.00133865754274
  H   -2.91671911046014      3.60334713898972     -0.00167271238139
  H   -4.42607637421318      2.74596964759954     -0.00155359239406
  N   -3.60253439205732      0.49859804493352     -0.00001387995248
  C   -3.34623727018799     -0.82496840392268      0.00076876899043
  C   -2.16893177247102     -1.54305446373085      0.00123589233763
  C   -2.22423198763049     -2.95622400833173      0.00197719652696
  N   -2.21070439440997     -4.11824596235894      0.00262840084960
  H   -4.25294362510627     -1.41892597302154      0.00103302702149
  H   2.07484549300416      1.86321692839277      0.00014320641513
