29
Coordinates from ORCA-job ./opt_b97-3c_parallel
  N   -6.16910526996287     -0.77324008769987     -0.00303770290782
  C   -5.02435537208963     -0.58634823549402     -0.00230549965693
  C   -3.61487884629415     -0.36022140044949     -0.00144679741054
  C   -2.84496173536208     -1.53885464942134     -0.00130360330663
  C   -1.45298221116162     -1.67898158184679     -0.00058197014501
  C   -0.91079168863454     -2.99404232776121     -0.00060425584723
  N   -0.42754124026888     -4.04847242633660     -0.00065516492733
  C   -0.55253564196315     -0.62790896826054      0.00014202516475
  C   -0.78796386250844      0.84547298826438      0.00036472184128
  C   -1.96364646082136      1.56313308359588     -0.00008416278180
  C   -1.86652350680010      2.98162050056551      0.00031174246798
  N   -1.75532201042378      4.13626384277445      0.00067960319575
  C   -3.25023315578199      0.98989159903598     -0.00091865978537
  H   -4.07139870342653      1.69135013398107     -0.00119941718839
  C   0.61449283149254      1.05815795989923      0.00113073501169
  C   0.84028524831319     -0.40013234365525      0.00092071022280
  C   2.02097683853800     -1.10292606684254      0.00144694375890
  C   3.28313720884080     -0.51649196079458      0.00223406632818
  C   4.39290745786919     -1.38892928258641      0.00266691794308
  N   5.34846322367713     -2.05327652636663      0.00314958896257
  C   3.60272451595453      0.91304038033982      0.00253671269880
  N   4.90804247415319      1.20997080294470      0.00298968412661
  H   5.62857188095166      0.50771977330417      0.00311262218136
  H   5.15886077648470      2.18377925010253      0.00326191883281
  N   2.84041395518448      2.01812944336809      0.00248635779858
  C   1.51468531912883      2.09692642622622      0.00190435086832
  H   1.13127905701602      3.11194405100659      0.00204091383960
  H   1.98460038203577     -2.18461248952742      0.00124127101280
  H   -3.40954855084089     -2.45927473376595     -0.00183220519881
