27
Coordinates from ORCA-job ./opt_b97-3c_parallel
  N   4.41072998953155      1.81378043605223     -0.12655225124605
  C   3.46952215327142      1.12510416521793     -0.08035242431708
  C   2.32414473697985      0.31531901965238     -0.02577052376160
  C   1.08889891182170      1.01232964069047     -0.00803131937619
  N   1.09961208084324      2.36477208573676      0.00765869386875
  H   0.25117945336727      2.85773449380996     -0.19516372649018
  H   1.95892320503726      2.86668226333764     -0.13931138930731
  C   -0.14366321564202      0.35213916710146      0.01802612761208
  C   -0.41502166791260     -1.08526442388432     -0.03633665606806
  C   0.41183146416649     -2.16946858053489     -0.05067383948753
  N   1.74647598372652     -2.17940224605245      0.00479490593308
  C   2.55508850130572     -1.11912221187655      0.04104964187446
  N   3.85181797829559     -1.48319686123491      0.14139990339286
  H   4.60883281320169     -0.82429029404040      0.15802103011475
  H   4.04704134816861     -2.46774945821548      0.13161418795071
  H   -0.04200071723506     -3.15380726067490     -0.10018974121454
  C   -1.82472407046217     -0.81337685378651     -0.03624771616425
  N   -2.89743533804018     -1.53438586240825     -0.07163832205983
  C   -4.12588214918568     -0.95838991554243     -0.05383173027504
  C   -4.51523829043088      0.36864980568161      0.01666534776332
  C   -3.77660588502143      1.56118780783313      0.08752026256169
  C   -2.39843235116213      1.72758389687303      0.09362618448664
  C   -1.51395477963481      0.67069118193385      0.02568463925391
  H   -2.02762691314481      2.74479870239030      0.16976581412564
  H   -4.36574532585146      2.46804611861077      0.14650227987175
  H   -5.59102675024856      0.50349484538505      0.02109670183656
  H   -4.93201505414508     -1.68183020165547     -0.09921606327853
