28
Coordinates from ORCA-job ./opt_b97-3c_parallel
  N   5.72572090820596      1.33254887927918      0.04066877646980
  C   4.66962373764242      0.84625073118288      0.02962204370386
  C   3.37362389186489      0.27579235733756      0.01780416261413
  C   2.26674158693551      1.18226439240613      0.03215877184423
  C   0.98732633321961      0.76492366785681      0.01576108422922
  C   0.35174928073801     -0.56798950601752     -0.01963318243560
  C   1.02070910593429     -1.83257439853450     -0.01795200059269
  N   0.30313956447895     -2.96077028508465     -0.01064807244823
  H   0.81225165650785     -3.82852688856155     -0.01273926606253
  H   -0.70267124171004     -2.98258989759896     -0.01368383962695
  N   2.33957361511571     -2.02857016240860     -0.02197944223553
  C   3.31795060242760     -1.11768734389593     -0.01314100373794
  H   4.29655431897532     -1.58785914042661     -0.03007202133205
  C   -0.92814449677568     -0.00454201857065     -0.01095565293654
  C   -0.32862759092897      1.36132591685637      0.01553238733812
  C   -0.89824408155013      2.58155987630928     -0.00042832324745
  C   -2.30833274128822      2.78280475199413     -0.05621758661384
  N   -3.31495443169248      1.95792048332243     -0.03587346444180
  C   -3.35090336687854      0.60157657664379      0.03329397255483
  N   -4.62456745265396      0.14885974018852      0.15772155521815
  H   -4.85051165314604     -0.82696684839760      0.08894401661200
  H   -5.35563195138186      0.82142298475612      0.01591586739092
  C   -2.29154686896977     -0.34070251458316     -0.01060684792153
  C   -2.65299879525217     -1.70120591407824     -0.03444766171855
  N   -2.96459060361916     -2.82338740003606     -0.05483473587999
  H   -2.61457381829688      3.82359420216947     -0.13178144103490
  H   -0.27634804387648      3.46808337020196      0.00108949964034
  H   2.48360994637428      2.24204772778941      0.05512083375056
