29
Coordinates from ORCA-job ./opt_b97-3c_parallel
  N   -1.15242905537234     -3.87650847792902      0.09498940107738
  C   -1.45177430194786     -2.75212835461531      0.07308921272301
  C   -1.74416558330420     -1.36933543474549      0.04773538683611
  C   -0.67789774656135     -0.44801122818952      0.01237222015495
  C   -0.79215652450469      1.03917097238044      0.02309233483971
  C   0.65431302278827      1.12608521881096      0.00356336255140
  C   0.71099356689710     -0.33960404912752     -0.01199686280860
  C   1.89082837317350     -1.14154932198696     -0.06748929377358
  N   1.76223183200804     -2.48291636794954     -0.13640207045534
  H   2.57390127615834     -3.07186436089766     -0.12329070941757
  H   0.86937274294601     -2.93980308154960     -0.06179906832618
  C   3.15369594116436     -0.57320351363113     -0.07954847860224
  C   3.57522479709472      0.79379149027290     -0.02884254615700
  N   4.93760895071830      0.95108022980113     -0.05528920980524
  H   5.53150173157056      0.19677942591779      0.23721479760427
  H   5.25635257329635      1.88145796804159      0.15376978629226
  N   2.93786848723778      1.95811339556493      0.00375136888134
  C   1.59820186160047      2.09937877230876     -0.00117418586374
  H   1.26429914187828      3.13318703826833      0.00848125690740
  H   3.96986064159212     -1.28416720917648     -0.15126101157393
  C   -1.85425756739829      1.86019107375415      0.03962203890121
  C   -3.21983138828082      1.39614023484100      0.03145738502448
  N   -4.16476954503784      2.38130869559369      0.04065160431769
  H   -3.92335206027352      3.31485065635414     -0.23633910502009
  H   -5.11232845733295      2.08519614946709     -0.11753573547000
  N   -3.71428355173608      0.17352783737977      0.04946223381414
  C   -3.09088074828684     -1.00875350645676      0.07572062372357
  H   -3.78283370571699     -1.84341061679121      0.11328546082462
  H   -1.68903754907044      2.93178323778954      0.05545306070001
