31
Coordinates from ORCA-job ./opt_b97-3c_parallel
  N   -6.42432621568065     -0.83230283297954      0.04890754561123
  C   -5.28811191841978     -0.59348061098582      0.03771120807120
  C   -3.89344549857483     -0.29902990335599      0.02273387341791
  C   -3.07404899366488     -1.44502917546583     -0.04712841400790
  N   -1.73902834688263     -1.56476445188664     -0.07528296702090
  C   -0.96121403970419     -0.51802013993877     -0.05442449478668
  C   -1.15459900174554      0.99789851720107      0.00561891402456
  C   -2.33113712275075      1.69257280636751      0.08308329387826
  C   -3.58184047810837      1.07380106142245      0.08590381048488
  H   -4.43777723688083      1.73186386558963      0.14822699594517
  H   -2.32714929918284      2.77447514395826      0.16195997289159
  C   0.24880464433162      1.12659669377518     -0.00281966384957
  C   0.42940793010794     -0.32336395062838     -0.06067983534745
  C   1.53606361752819     -1.16806890179166     -0.04618006852337
  N   1.29640377540264     -2.49141935071321     -0.07480118464421
  H   2.04024434712943     -3.16557247691644     -0.04639849281962
  H   0.34108231977076     -2.81202575097661     -0.08021346476815
  C   2.87298743080083     -0.68498697453637      0.00877692729567
  C   3.87305488583005     -1.66950037875207      0.05796056385595
  N   4.69313492379993     -2.49792762870880      0.10150159851342
  C   3.31186563491229      0.67878226806546      0.00551524730671
  N   4.66413201472926      0.84688744126903     -0.01897289506695
  H   5.27477229741332      0.06137335860927      0.12314139076383
  H   5.05047059371995      1.74953263872084      0.18213164100389
  C   2.58150267920808      1.88247650522986     -0.01101218360191
  C   1.21220152474456      2.14049782483552     -0.00770602801659
  N   0.78833089260868      3.44264941954217      0.03614896641629
  H   1.44684556776536      4.15668498657667     -0.22163443141752
  H   -0.14850468028164      3.62463744001041     -0.27597757510743
  H   3.20701236857587      2.76809725561632     -0.03387565286829
  H   -3.60199183420189     -2.38950701435353     -0.07932010193403
