30
Coordinates from ORCA-job ./opt_b97-3c_parallel
  N   5.28073014551535      2.15069565085557     -0.04532598230722
  C   4.37216289053038      1.42297936499066     -0.03479475315591
  C   3.24722420363233      0.56523809150944     -0.02184489192766
  C   1.95298966495961      1.21856855940146     -0.03820957771153
  C   0.79533806956227      0.54446453892879     -0.02576276505129
  C   0.45515575427733     -0.87710737401087      0.00388961653745
  C   1.29499044648184     -2.02471802709473      0.01817871887095
  N   0.64684838786149     -3.21182578024682      0.01113430931237
  H   -0.35727266359745     -3.22092471939630      0.08233110980315
  H   1.14338958349812     -4.07637165445360      0.12062171483119
  C   2.67792958275965     -1.93929046626373      0.02470688501540
  C   3.50212346427459     -0.79372983323044      0.00615547898455
  H   4.55824035841247     -1.03540120191708      0.01485905465761
  H   3.21182442439383     -2.88238597163415      0.03792019371687
  C   -0.91148334577594     -0.62270643264195      0.01366481178189
  N   -2.01557797988524     -1.38203466425728      0.00117177610835
  C   -3.21264914446728     -0.83261890114730      0.00795043142924
  N   -4.25873365935002     -1.73352271405899      0.06271096654041
  H   -5.13126565918247     -1.45259084544002     -0.34978269054419
  H   -3.98739827015187     -2.67666232075385     -0.15920425790914
  C   -3.62399180029420      0.54618346424864      0.02906367418833
  C   -2.91906571726193      1.72446495505122     -0.01312840928738
  N   -3.61073205114275      2.91176721975946     -0.06059097120721
  H   -3.13178150606750      3.73689525994407      0.25388887857649
  H   -4.58607409856101      2.89389993807060      0.18159316770654
  C   -1.47871249848425      1.88392327805571     -0.05334188426389
  C   -0.65237801839277      0.83508957450426     -0.02545398963443
  H   -1.08394514118806      2.89179955940406     -0.10665900773697
  H   -4.69969361635138      0.67072184658297      0.09589757032664
  H   1.94623553449492      2.30015132934019     -0.05869290785055
