26
Coordinates from ORCA-job ./opt_b97-3c_parallel
  N   -4.26641155589861     -1.25059240963419     -0.06157275642900
  C   -3.11426042309021     -0.52185028244823     -0.03481316651968
  N   -3.27657394857001      0.77662359324325     -0.03299739076771
  C   -2.36861984779785      1.79139812242292     -0.04368983309616
  N   -1.05835210290804      1.84346413952114     -0.01208499527591
  C   -0.34241272011081      0.70810734622127      0.01149895647707
  C   -0.70042761596187     -0.73708133888368     -0.01528420962317
  C   0.73830532158857     -1.05067520873038     -0.00073185116142
  C   1.00546023572464      0.38344008387522      0.02730392077133
  C   2.23871263141017      1.10295161351603      0.03550239335179
  N   2.10246218993125      2.44991154989821      0.07629484201289
  H   2.89544124248470      3.05477722411380     -0.03013233160482
  H   1.18088105699048      2.84954637103645     -0.00510333912775
  C   3.46633885197040      0.47214817985089      0.01928807430196
  C   3.75381085919450     -0.91923450983183      0.00272275154322
  C   2.96984740918323     -2.04428195045596     -0.01162505651155
  C   1.54665021715709     -2.13156417500084     -0.01729994373807
  H   1.10233984173011     -3.11966449554914     -0.04143918125271
  H   3.50021880861047     -2.98791266985574     -0.02485922500938
  H   4.81904144739399     -1.12446636906745     -0.00076230304577
  H   4.33511386791677      1.12111826523157      0.02627812369772
  C   -1.89535225834487     -1.32994485400856     -0.04537830087812
  H   -1.98892362830227     -2.40950406523599     -0.07865187941156
  H   -2.85286165883088      2.76159213961062     -0.07009950161002
  H   -4.25979719132037     -2.22108847522332      0.19277797859679
  H   -5.11876922245057     -0.73839923531604      0.08776800301006
