35
Coordinates from ORCA-job ./opt_b97-3c_parallel
  N   -6.03476392021815     -0.73723157753260      0.09555259344154
  C   -4.89193789986113     -0.51755229979548      0.03383424576842
  C   -3.51048487912994     -0.24246358255213     -0.02405331818385
  C   -2.67802251595276     -1.41323187216335     -0.10645189272190
  N   -1.34591084623119     -1.52415505966611     -0.10013945941427
  C   -0.55063706600854     -0.48294911252562     -0.06814983613952
  C   -0.74354354409165      1.02569988774039     -0.03683905717167
  C   -1.90145681852255      1.73159099081762      0.01765862954549
  C   -3.18780344952327      1.14348988390321      0.02753108235888
  N   -4.23240706485080      2.03347096017585      0.04854501251915
  H   -5.15555145232302      1.69643541857137      0.26323968499539
  H   -4.03988441186899      2.96067116311743      0.38027041221979
  H   -1.87271794068970      2.81478662646146      0.07282551135862
  C   0.66465155343927      1.17072227700622     -0.02559541244116
  C   0.83193882550037     -0.30157717717158     -0.04814467694699
  C   1.93996433352367     -1.14449474500152     -0.01046063752588
  N   1.70100694915565     -2.47177018562316      0.00255698009283
  H   2.44999820290863     -3.13964826163342     -0.03867537711599
  H   0.75082445184361     -2.79341472051468     -0.07126590720436
  C   3.27612026813618     -0.66604400193942      0.03954425809763
  C   4.26964899081652     -1.65165151627649      0.10356599815193
  N   5.08088269092695     -2.49090278670398      0.15901899254829
  C   3.71713718367458      0.70999649252065      0.02191120082421
  N   5.07606493486398      0.85656589555383     -0.00997507554988
  H   5.46622102361256      1.75514998464148      0.20398625282506
  H   5.66586646498781      0.06660246330263      0.18668143057323
  C   2.99929689899306      1.90758346646105     -0.00390416242601
  C   1.61611763315621      2.16817012402130     -0.03150156830971
  N   1.21605817284924      3.49260128185364     -0.01213971809354
  H   0.30680637542475      3.66786929434515     -0.40374160678590
  H   1.89855072302620      4.15579967894047     -0.33937784676918
  H   3.62492916206027      2.79322669362230     -0.02639181216444
  N   -3.31121435436862     -2.62041200184929     -0.23419805384047
  H   -4.28240713992619     -2.70838621386649      0.00735331494345
  H   -2.73296261743316     -3.42071281564083     -0.05210521435966
