29
Coordinates from ORCA-job ./opt_b97-3c_parallel
  N   5.28366244591854      0.01220701651667      0.05068371277935
  C   4.11820234089170      0.04404117193626      0.04937991670781
  C   2.71018824492027      0.03650744368652      0.03467876735900
  C   2.15257101392887     -1.25409373973686      0.06322013524086
  N   0.83169575404415     -1.66347211431714      0.03496987088977
  C   -0.12743694386738     -0.81934666516466      0.00286846775448
  C   -0.27282748201238      0.64864700372880     -0.01159152592256
  C   0.72804703531668      1.62168675893468     -0.05053688356351
  C   2.07691867028078      1.34856341411519     -0.02824577104199
  N   2.95297457922429      2.41550714111691     -0.00242962819509
  H   3.89698233858668      2.25641888304484     -0.31258580910875
  H   2.57997743049781      3.29616980318479     -0.30947615795558
  H   0.44715192200573      2.66691352456425     -0.11756343045348
  C   -1.66244610437814      0.48760909616495     -0.01764995122470
  C   -1.59956107454035     -0.96956390738412     -0.02104506844253
  C   -2.50662358900413     -1.95719069096429     -0.06525305766902
  N   -3.88242880517798     -1.81319767611606     -0.13309118621032
  C   -4.49378040873818     -0.66744705454920     -0.11679412900331
  C   -4.09935718765376      0.71251347659277     -0.01852266759754
  C   -2.84750677983199      1.28223844129157      0.02378928757886
  N   -2.68096176370417      2.63769280405755      0.06813061126115
  H   -1.81090618348714      2.98179731108390      0.43337119953397
  H   -3.48016699961601      3.20007962825367      0.30505261615636
  H   -4.93840201041198      1.39933085316266      0.01525268102283
  H   -5.57730824221390     -0.76885142087448     -0.17831824674752
  H   -2.16384456144768     -2.98462767087454     -0.06299178027355
  N   2.96072533174350     -2.33112540381117      0.12548981285529
  H   3.96192323096462     -2.26006309163076      0.14346637146032
  H   2.52382216946148     -3.23371647881287      0.12089645720847
