32
Coordinates from ORCA-job ./opt_b97-3c_parallel
  N   -5.68618985427308     -0.65652270419997      0.00027335000276
  C   -4.52621794299519     -0.58726866812490      0.00084690850616
  C   -3.11293194245562     -0.43990777915487      0.00132342048777
  C   -2.42819063779324     -1.64811946184914      0.00064005853809
  C   -1.04667508279038     -1.92610745745642      0.00053997950817
  C   -0.65178538053421     -3.29064896001694     -0.00014823816309
  N   -0.31497373426584     -4.40121746968561     -0.00081455508443
  C   -0.06816143235630     -0.96427375125109      0.00090617636846
  C   -0.16848576271805      0.54291481118885      0.00132297473568
  C   -1.30549712752461      1.35459914584296      0.00192173421895
  C   -1.10632419400388      2.75144636424583      0.00204413523028
  N   -0.95867179489770      3.90598814223263      0.00191733742963
  C   -2.65972837441396      0.92576546133873      0.00222090915984
  N   -3.62216562226065      1.88427810992670      0.00477161003625
  H   -3.38750887462755      2.85916033840925     -0.00005803900138
  H   -4.59540745166377      1.64068820472281     -0.00042550759968
  C   1.22897734216105      0.61750408312119      0.00106422942235
  C   1.33651905098985     -0.86315517492305      0.00066839403638
  C   2.40143626935090     -1.73530576226931      0.00029972781992
  N   3.69335446932177     -1.44493165667351      0.00010809836527
  C   4.20111140711790     -0.18902636751303      0.00031816402551
  N   5.55509979161526     -0.23271007371148      0.00021210612117
  H   5.98697211818942     -1.13895538786462     -0.00130239987722
  H   6.12770691032632      0.58940812878569     -0.00138299432551
  C   3.63669602828381      1.10658332680999      0.00081407965874
  C   2.30609214777748      1.53548019712693      0.00117860100463
  N   2.07271634508649      2.86287462420225      0.00166856342699
  H   2.83608237620225      3.51294134769122      0.00181914017238
  H   1.14605411021341      3.24956838700208      0.00188388107433
  H   4.36717488983146      1.90810888859756      0.00103953272442
  H   2.17941888091647     -2.79743858804139      0.00010345939630
  H   -3.06535701820982     -2.52077891110937     -0.00001576061912
