28
Coordinates from ORCA-job ./opt_b97-3c_parallel
  N   -0.39927344468797     -4.39391410298970     -0.00113400549665
  C   -0.84078003427912     -3.31903158177700     -0.00016533809784
  C   -1.31582715405100     -1.98544327429053      0.00052808264210
  C   -0.36450252058025     -0.94819333213077      0.00055272375130
  C   -0.59282917711731      0.50854705807014      0.00095322440197
  C   0.84530737217919      0.72404042605406      0.00054039755165
  C   1.01195208857374     -0.74007926290339      0.00018620033772
  C   2.21548781130184     -1.46649444416281     -0.00023914403505
  C   3.44079177598010     -0.88799536619257     -0.00044620662322
  C   3.79485559810125      0.54347768514487     -0.00042208565264
  N   5.13517449888598      0.74055547473481     -0.00074761652623
  H   5.46952711832919      1.68813152366758     -0.00139343834704
  H   5.79590789076852     -0.01218026025810     -0.00218124634284
  N   3.09201959937601      1.65037803845336     -0.00003691829736
  C   1.73192005677253      1.74146725518637      0.00050897155502
  H   1.36262747977885      2.76030946781670      0.00086384556709
  H   4.29009538992704     -1.55983181406209     -0.00066637695042
  H   2.16356247258877     -2.54859996376013     -0.00037261030649
  C   -1.73053629592880      1.24624456774055      0.00145518615747
  C   -1.63825144932232      2.65689844580581      0.00163184505840
  N   -1.62036001727267      3.81921948261179      0.00141420610303
  C   -3.06825615357580      0.62949872206961      0.00184379041500
  N   -4.10044822474824      1.50069451022423      0.00261603216955
  H   -3.97199987194728      2.49603898114100      0.00239459908241
  H   -5.02972197274459      1.12087966300637      0.00258957481152
  N   -3.41152212327894     -0.63726382975556      0.00162425938664
  C   -2.68532600383855     -1.76364100298570      0.00103807040994
  H   -3.30014549859018     -2.65659588005892      0.00095082937492
