28
Coordinates from ORCA-job ./opt_b97-3c_parallel
  N   2.52257668493582      3.34764191339849      0.01332682490091
  C   2.31208626873590      2.20433764747778     -0.00283343392718
  C   2.09883351447738      0.80714467308567     -0.01489668949288
  C   0.82811580481976      0.31484762626001     -0.01463180866332
  C   0.37031539697804     -1.13856389313044     -0.01812095083269
  N   0.98787736786609     -2.30487837084247     -0.00781050759621
  C   2.31962448861005     -2.34188522373738      0.00224500102009
  N   3.27559230198309     -1.40918378425023     -0.00196514969588
  C   3.24553390531765     -0.08710694213778     -0.02042185013900
  N   4.46864978213906      0.50481471841083     -0.07501583926772
  H   5.26228498492309     -0.09560929017799      0.05689247957005
  H   4.58202202448131      1.48941771823273      0.08602327121783
  H   2.72366408873448     -3.34839852507097      0.01870438387412
  C   -0.94435380174703     -0.70032807619295     -0.01876679951623
  C   -0.53265167062992      0.71653622320773     -0.01368190575675
  C   -1.31503574195347      1.83752218457908     -0.01299168755965
  C   -2.70723177528795      1.80231789007991     -0.01323011961544
  C   -3.57818413373003      0.68709240612234     -0.01606140520605
  N   -4.90588159448513      0.98075136855329     -0.05423740316056
  H   -5.54656621726732      0.22016287503611      0.08146932545513
  H   -5.23441240979806      1.91547873958973      0.09833128072219
  N   -3.39647338021992     -0.65726804352224     -0.00379001549623
  C   -2.23310990511657     -1.28787987945857     -0.00701263238230
  N   -2.26945190630863     -2.63054750010658      0.00714993097391
  H   -3.15709549411279     -3.09990860676774      0.00267046699079
  H   -1.41128201760975     -3.15821437472182     -0.00006206438891
  H   -3.20645943404674      2.76273986899059     -0.02606109572491
  H   -0.83983509318843      2.81064070719292     -0.01022798510310
