33
Coordinates from ORCA-job ./opt_b97-3c_parallel
  N   -1.26434082653463     -3.66165625013907      0.23250371640477
  C   -1.42276858533080     -2.51223771350814      0.10979755590728
  C   -1.62701406094349     -1.12748620541981     -0.01391507768892
  C   -0.49838504581117     -0.27470463814453     -0.03233903338297
  C   -0.47858833019539      1.21649642594098     -0.00805942276955
  C   0.96845945556752      1.18349994811536      0.01656731961923
  C   0.90114039158712     -0.28638989507217     -0.02068278493407
  C   2.00469810913346     -1.19725303862151     -0.04980948412207
  N   1.73895846362648     -2.52436487122642     -0.18578650904563
  H   0.81665179482567     -2.88245099383499     -0.00939225268503
  H   2.48529420792212     -3.18097616604089     -0.04496274459547
  C   3.32478701891255     -0.79020122538366      0.00502890697764
  C   3.93035851219864      0.50415946554037      0.06323172097608
  N   5.31602378234684      0.45103774639191      0.16209404007592
  H   5.75614830865566     -0.35183844845712     -0.25479576859002
  H   5.79775017441110      1.30580365760854     -0.05927721674956
  C   3.35337066727828      1.76279443129101      0.08178234995983
  C   1.98020317641169      2.07972791426403      0.06440897956632
  H   1.72226477042574      3.13305047715896      0.08383739571575
  H   4.03910962009912      2.60049836343197      0.12385341704869
  H   4.04110807472302     -1.60573966634487      0.00926483879194
  C   -1.44150275904242      2.15050988198794     -0.03165035798558
  C   -2.84673284193781      1.87016529841531     -0.07561542351715
  N   -3.64899166662954      2.99446227254246     -0.17137351633539
  H   -3.26802476864796      3.84413487034278      0.20740623650623
  H   -4.62239702694879      2.87388159785156      0.04997474937042
  C   -3.45780078035061      0.63479003693572     -0.09479675917470
  C   -2.96765759498768     -0.69442094401097     -0.06513505261368
  N   -3.95818540272808     -1.66265258819298     -0.14045468517038
  H   -4.84611658550600     -1.40821708957444      0.25642112904018
  H   -3.68779346235664     -2.60295534542428      0.09818259112945
  H   -4.54022958623704      0.68255937198899     -0.16640857242443
  H   -1.14734077383693      3.19446125318788     -0.03431092480512
