27
Coordinates from ORCA-job ./opt_b97-3c_parallel
  N   -4.73989839335641     -2.05320329712904     -0.04044566642229
  C   -3.84026114552470     -1.31769602748773     -0.03323754117310
  C   -2.74320574864092     -0.41972433858159     -0.02322967400487
  C   -1.44244373213887     -0.98831743908126      0.00924416429054
  C   -0.31722437798707     -0.23353106090927      0.00456202397742
  C   -0.11120364315147      1.22487065472389     -0.03043565966699
  C   1.28732313904723      1.06460089597077     -0.02707383237911
  C   1.10854855073315     -0.41638307648337      0.00829113269956
  C   2.01819698342771     -1.43460692877213      0.02910807706934
  C   1.52512260795866     -2.76845478510649      0.06318756838520
  N   1.11523942440924     -3.85341070355839      0.09158002546614
  C   3.43221021448343     -1.25082854804561      0.02073128493865
  C   4.14179352515477     -0.07430940200058     -0.01857543095702
  C   3.73354649632995      1.27468148244600     -0.06196331388953
  C   2.45651582615242      1.80577590859816     -0.06810094185179
  H   2.38436617533168      2.88728433527506     -0.11929607085604
  H   4.54241470889519      1.99291868767922     -0.09730760966196
  H   5.21715129748790     -0.20805665847301     -0.01948054174052
  H   4.01409493362662     -2.16158779548924      0.04632687737765
  C   -1.07703383179168      2.24468451191632      0.00218761938618
  N   -0.68294088182682      3.53225080026506      0.04919101445521
  H   -1.39801772156673      4.23108896580930      0.15595526964545
  H   0.26833700290950      3.78120568060748      0.24364612291666
  N   -2.40923391369281      2.08579548244851     -0.03107934919228
  C   -3.08545393721278      0.94483336803563     -0.05786309111170
  H   -4.15723551087126      1.11416168906711     -0.10317518497109
  H   -1.36194994038590     -2.06682508702469      0.03117052597041
