32
Coordinates from ORCA-job ./opt_b97-3c_parallel
  N   5.35208109353228      1.24577430293595     -0.12886861090102
  C   4.41653155919248      0.55199528985686     -0.08454951465734
  C   3.24542557156542     -0.23180439897835     -0.03217379597367
  C   3.47077330512534     -1.65328759520810      0.03481528819794
  C   2.63400458659164     -2.72129306271020      0.07941335431396
  C   1.20634385938536     -2.70812826550443      0.07457734860689
  C   0.47342698026508     -1.58288477557600      0.03877172803263
  C   -0.95307322196398     -1.24790348079702      0.03143747129220
  C   -0.60778827560088      0.18159521385415     -0.00496392167335
  C   -1.49518282575964      1.28716024680363      0.02060042722149
  C   -0.96948457136948      2.58637900004035      0.10214483937781
  N   -0.55360981467370      3.67371137208685      0.17694711892344
  C   -2.90108027124663      1.18733015187364     -0.01180297066261
  N   -3.62486312313882      2.35449661497844     -0.07521217404196
  H   -3.14723580632444      3.21940958415638      0.11543563613333
  H   -4.57017516130699      2.32894240443189      0.26198243716000
  C   -3.70296310459655      0.01341618871710     -0.04696326674826
  C   -3.40754166840323     -1.32930585182358     -0.00478682447718
  N   -4.44567486243356     -2.22826993962676      0.02812638048239
  H   -4.25579413987318     -3.16771798427068     -0.27213070625940
  H   -5.36230426440523     -1.89962064473889     -0.22006827199311
  C   -2.10202785825296     -1.93367981339071      0.04583300550856
  H   -2.05864868134686     -3.01557685921196      0.09315285656836
  H   -4.76372066192112      0.22948154501859     -0.12172558565447
  C   0.76189009161915     -0.14545891573110     -0.00248797853870
  C   2.03985049649487      0.49800083976846     -0.05103176406941
  N   2.08273276057891      1.83785878527900     -0.14087142916074
  H   1.25700586559894      2.40652497086265     -0.08260263534121
  H   2.96818197008606      2.31616453913173     -0.14256003773461
  H   0.69157085815069     -3.66110195083195      0.10613767849094
  H   3.10642412006041     -3.69367649061256      0.12434756320525
  H   4.52552786567063     -1.89820305288330      0.04729301227186
