23
Coordinates from ORCA-job ./opt_b97-3c_parallel
  N   4.87323293520187      2.12572427025331      0.15393387396914
  C   4.01315911745466      1.34849430979650      0.08029929275567
  C   2.93707052583097      0.42714751830314     -0.01159781690837
  C   1.60501207436304      1.01997551073609     -0.09929193717939
  C   0.50586876900214      0.26784011146203     -0.01414341682509
  C   0.29170210522172     -1.17631315072992      0.07251403946627
  C   1.26735944728771     -2.20253755613709     -0.10915172814852
  N   2.55133962557529     -2.06213935229286     -0.13847445793218
  C   3.27287538549544     -0.89970563569806      0.04707666698010
  H   4.32455596662247     -1.10659994537161      0.20280900307751
  H   0.89758077798184     -3.20704203467248     -0.30089316947539
  C   -1.09927913734692     -1.05119870993288      0.09818622850201
  N   -2.16259089001149     -1.86820608253366      0.12395897702221
  C   -3.35553024291317     -1.32145064761191      0.09552421152665
  N   -3.80563561774946     -0.04408592511920      0.05167055015826
  C   -3.15016389515244      1.09152253281008     -0.00210186725579
  N   -3.88581708299239      2.21066262233451     -0.02879686948844
  H   -4.88712119311254      2.14221270578742     -0.00445822556855
  H   -3.43302488100738      3.10481572218350     -0.07247270653329
  N   -1.77462542288863      1.41327609195259     -0.04772316735299
  C   -0.97288152996749      0.42272898745750      0.01052384032118
  H   -4.17195958358840     -2.03541528080474      0.11395552138536
  H   1.53256440269322      2.09531679842780     -0.17312206009636
