32
Coordinates from ORCA-job ./opt_b97-3c_parallel
  N   -5.65736461643814      0.01645551690587      0.07963944486070
  C   -4.49297730070797      0.00594806920967      0.02729300591308
  C   -3.08374744665558      0.03232519057475     -0.01859690583460
  C   -2.54254041284568      1.33045753112786     -0.09609204025675
  N   -3.40051519058419      2.38807328333726     -0.21064763460013
  H   -4.38384312641379      2.25224985429809     -0.04905839633718
  H   -3.05088251837811      3.30386860873411      0.00102742922478
  C   -1.16135960582307      1.70250835378563     -0.10453564526901
  C   -0.12389320863085      0.85095224205060     -0.04529216491605
  C   -0.05611213686018     -0.63391570748610      0.00876246192966
  C   -1.09289595394388     -1.55511279702904      0.06192798974361
  C   -2.44593485406302     -1.26875924007258      0.04840385012163
  N   -3.31396991693369     -2.35191650719003      0.04339046503255
  H   -2.92817479967513     -3.20796772691935      0.40166514184490
  H   -4.25330881014128     -2.19092655067329      0.36774898369749
  H   -0.83723933183899     -2.60731562643289      0.13416487088546
  C   1.34097054216816     -0.56196553293578      0.00119226398130
  C   1.32774823309413      0.90669031280993     -0.03967649832493
  C   2.30874060923683      1.83461224063158     -0.02903967890120
  N   3.64883090793565      1.62183791970558      0.05904848375681
  C   4.23396788579502      0.43957123208641      0.04352497513870
  N   5.60471903901871      0.52543848225480      0.10656330887892
  H   6.12395023305357     -0.25484889819052      0.46739888326286
  H   5.94788528722563      1.43788626259798      0.35521737529734
  C   3.76105463175709     -0.91717787608168     -0.08429588746931
  C   2.47114916216583     -1.40560626271966     -0.07656627128099
  N   2.24786311528142     -2.76159705460764     -0.12012963224512
  H   1.36355686124396     -3.04560093399233     -0.50453428954432
  H   3.01450509253537     -3.33447005869756     -0.43030597344377
  H   4.54566029017009     -1.65821540731499     -0.19078877675785
  H   2.03425760830979      2.88470986403659     -0.06385818201529
  H   -0.95178712565766      2.76419873359680     -0.17131534617336
