27
Coordinates from ORCA-job ./opt_b97-3c_parallel
  N   3.78454265432045      3.46406979489028     -0.00001515326765
  C   3.03781055123045      2.57378897155518     -0.00030669579757
  C   2.10515577325869      1.50394084680160     -0.00064238837054
  C   0.73064721247643      1.87533146719808     -0.00161978817203
  C   -0.28363711313351      0.97909507665804     -0.00206752369346
  C   -0.29271357222283     -0.49202803659046     -0.00170327450295
  C   0.72646934617090     -1.44611552050513     -0.00083254056053
  N   0.37008753332223     -2.73454348941500     -0.00075413611974
  H   -0.60953407350518     -2.97362993684281     -0.00132558534574
  H   1.05648356053614     -3.47050961881255     -0.00016283196718
  C   2.10931571182124     -1.07462634455933     -0.00004242505690
  C   3.02294831012060     -2.15167941703885      0.00080910889761
  N   3.70767315565404     -3.09285364786683      0.00137642619829
  C   2.65315440083299      0.21954967451027      0.00001417564572
  H   3.73547883866824      0.21603631121719      0.00071581117753
  C   -1.69001052220948     -0.52125263607936     -0.00261994162134
  N   -2.59362737742826     -1.48771479698541     -0.00299074533376
  C   -3.88903968894408     -1.20568615965236     -0.00391879527825
  C   -4.57379376686855      0.03764830741039     -0.00466426742076
  C   -4.12818390747836      1.33968357269550     -0.00467517222153
  C   -2.79018777941968      1.82048688212074     -0.00390975561827
  C   -1.72982666963718      0.98446008104903     -0.00300181567764
  H   -2.63750850999051      2.89324391185811     -0.00406206777320
  H   -4.89924806341973      2.10009895831118     -0.00536224702718
  H   -5.65171635854229     -0.07627389549626     -0.00534870830548
  H   -4.52980144443428     -2.08059424065968     -0.00413481173171
  H   0.50508050262152      2.93360968162842     -0.00203261185575
