30
Coordinates from ORCA-job ./opt_b97-3c_parallel
  N   6.04760386756199      1.06560195149363      0.00638108783796
  C   4.90608314042923      0.84073659188205      0.00507158787441
  C   3.53322820221828      0.49492380132419      0.00418982779229
  C   2.65873758604554      1.61417062722209      0.00122787959087
  N   1.33602624137341      1.70346456736851     -0.00016734405265
  C   0.63099244965503      0.58656279102485      0.00127835848398
  C   0.98206136821759     -0.90242080268837      0.00456599934161
  N   2.08371425082379     -1.57076304626165      0.00691573392070
  C   3.27906762725004     -0.91207670723001      0.00659698063096
  N   4.32555733986792     -1.76352777537778      0.00883383926624
  H   5.27828485606426     -1.44746060809027      0.01048384282423
  H   4.12761063959575     -2.74645808397278      0.01196346486236
  C   -0.41871039981485     -1.20113701183297      0.00424340018592
  C   -0.71181374991539      0.24149233669529      0.00102984639244
  C   -1.92281560799643      0.96285974811728     -0.00043599019411
  N   -1.80374783713101      2.29933820490501     -0.00263131442162
  H   -2.60742236285759      2.90334150788452     -0.00354753224305
  H   -0.88237874680633      2.70871295461889     -0.00282975330380
  C   -3.19214895575936      0.34673968948167      0.00051186397927
  C   -4.28475940917107      1.22727463976111     -0.00045621322447
  N   -5.17973614593364      1.97666649178777     -0.00088335376055
  C   -3.49859800540969     -1.07556468583252      0.00224255546457
  N   -4.82609204753748     -1.35186738780878      0.00070695338094
  H   -5.52065503218392     -0.62667188200853      0.00255108883124
  H   -5.14581880682856     -2.30124140300662      0.00539887751329
  C   -2.65134171785484     -2.19246300335075      0.00471982867634
  C   -1.25781069210431     -2.27341845946673      0.00576593517074
  H   -0.82178647911614     -3.26470975513942      0.00799391211479
  H   -3.17187332036577     -3.14222919246365      0.00567113799049
  H   3.17060080448498      2.56923613306543     -0.00006586022400
