28
Coordinates from ORCA-job ./opt_b97-3c_parallel
  N   -2.99728457429912     -3.17696424880143      0.00094754976223
  C   -2.66068813446508     -2.06479472517034      0.00075127314841
  C   -2.23430047349859     -0.71158005843429      0.00035412257829
  C   -0.88321924906012     -0.42789840778697      0.00049237814085
  C   -0.20875670509040      0.93558865396352     -0.00007174455331
  C   1.04198973106741      0.29630541864800      0.00039881884732
  C   0.38500272841698     -1.03176187802565      0.00086248894982
  C   0.95438285953523     -2.32026200180769      0.00160248553366
  N   0.18860771495508     -3.42294680294730      0.00207751910353
  H   -0.81722617258022     -3.39320475177028      0.00176144646672
  H   0.61597751856909     -4.33060475748469      0.00246241137708
  C   2.35384908185706     -2.48993947368439      0.00188683859103
  C   3.36654323744426     -1.54598873118467      0.00143438679902
  N   3.44689949276723     -0.21967895824176      0.00058264495859
  C   2.41922482222374      0.64115122859663      0.00004438937466
  N   2.80152777523959      1.92451272809102     -0.00092133216567
  H   2.16440624694806      2.70294761146950     -0.00101883053467
  H   3.79078639758872      2.10300049774761     -0.00085607982274
  H   4.35617278018962     -1.99745923219943      0.00183480161327
  H   2.70304871169213     -3.51546475614551      0.00253632172123
  C   -0.81360842080430      2.17829789379540     -0.00060412701476
  C   -0.01198777102568      3.34938082829086     -0.00091090355327
  N   0.64681613645417      4.30644096603194     -0.00099411883935
  C   -2.21490168735809      2.40671691888114     -0.00084562191375
  N   -3.24250996620883      1.57593939334698     -0.00070642448856
  C   -3.27424981613130      0.25611627886402     -0.00022734072449
  H   -4.27656163955028     -0.15895349973102     -0.00029210011159
  H   -2.49934279827637      3.45358708778882     -0.00124188214357
