25
Coordinates from ORCA-job ./opt_b97-3c_parallel
  N   -1.64400804921082     -3.26568796330813     -0.00071159717461
  C   -1.54953746226153     -2.10648483235455     -0.00107381230324
  C   -1.51534365749452     -0.69450356729727     -0.00108286327943
  C   -0.32468400720504     -0.05434707545353     -0.00082911332933
  C   0.04731000307271      1.35274456220054     -0.00055665665503
  C   -0.80157621554344      2.47308160241133     -0.00056868268992
  C   -2.16418082912944      2.38825137671364     -0.00086004427968
  N   -3.02230279030863      1.33177472206085     -0.00113152248043
  C   -2.80456418549011      0.04974035677394     -0.00125556055553
  N   -3.90154297646438     -0.74061117404515     -0.00170334701612
  H   -3.85107274595508     -1.74266891488385     -0.00099959529319
  H   -4.79877650165665     -0.29031332826913     -0.00129970573823
  H   -2.69723365381792      3.33295732245517     -0.00084378285463
  H   -0.36649656468161      3.46466252698140     -0.00033794713397
  C   1.40557357024047      1.00712238106158     -0.00012102143888
  C   1.10807647037292     -0.42765707020426     -0.00048195188500
  C   1.86158268561083     -1.53598478613347     -0.00030657420337
  N   3.25500484691422     -1.58260447598066     -0.00052490204412
  C   4.03912695468122     -0.55915319517270      0.00023792333169
  C   3.83766521781990      0.88856610718932      0.00152160107890
  C   2.68431319307737      1.60453067778489      0.00109003577488
  H   2.75152507214953      2.68691588468634      0.00184876831936
  H   4.76461544974739      1.44897979448025      0.00254694742665
  H   5.09535791273218     -0.82653327238310     -0.00023369254819
  H   1.39112858480042     -2.51004432541347     -0.00035609222855
