29
Coordinates from ORCA-job ./opt_b97-3c_parallel
  N   4.76569193939669      2.15867323030767     -0.04210439691489
  C   3.90607603188717      1.37273052996738     -0.01252673958263
  C   2.81013741157444      0.48486017993410      0.01569552312308
  C   3.13424769290902     -0.87545183647796      0.02902650228918
  N   2.47022838990400     -2.02515552462206      0.06133742593748
  C   1.13645098094760     -2.17270572343935      0.04087719961467
  N   0.72614711788115     -3.46105555730054      0.08163874203608
  H   -0.22652010882151     -3.68347236061638      0.30229207476954
  H   1.43137704601625     -4.15126837003949      0.27450121670435
  C   0.18814101760429     -1.14671299341840     -0.04092898249787
  C   0.36761548558561      0.32045465502220     -0.01500149152349
  C   -1.05470770980065      0.48394035398139     -0.03462305532418
  C   -1.20951673504866     -1.01103159931994     -0.07288455811109
  C   -2.37423429521158     -1.74071021050035     -0.16597034664509
  C   -3.64848401588690     -1.18056256529530     -0.19112434559730
  N   -4.08213737780126      0.07769595575934     -0.09355302798104
  C   -3.40619093888811      1.21114274110647      0.00289170244243
  N   -4.20295832921764      2.33512718849044      0.05688050609837
  H   -5.17163129050558      2.14060705402694      0.24691193129195
  H   -3.83853282902840      3.15586305727288      0.50763810129708
  C   -1.99580254920266      1.45487738475220      0.00184911799522
  H   -1.68856514633588      2.49506210910665      0.04518093268116
  H   -4.46330528074694     -1.89201086367477     -0.28922770564579
  H   -2.33247087425825     -2.82187883230047     -0.24615634829051
  C   1.49415701263193      1.09699949246185     -0.00528620385830
  N   1.42769875202906      2.45677809882854      0.02163049148000
  H   0.57618174856270      2.89342554552009     -0.27828407325773
  H   2.26753625130418      2.97953799725583     -0.16505203197241
  H   4.20845140392011     -1.04001438748889      0.02014221644179
