28
Coordinates from ORCA-job ./opt_b97-3c_parallel
  N   -5.74253831496442     -0.42476772283305     -0.00046281568021
  C   -4.63010423789804     -0.08724692194715     -0.00040524769540
  C   -3.29008490638731      0.36815347112752     -0.00043183009527
  C   -2.28944957355390     -0.57854430381020     -0.00031366977569
  C   -0.93533787568789     -0.25092601994709     -0.00017720528169
  C   -0.31950047351223      1.08995744946028      0.00033718933326
  C   -0.82386823415620      2.32958474205920      0.00048236527468
  N   -2.17474048846124      2.66255487038350     -0.00069817703601
  C   -3.16436435919031      1.84098296328430     -0.00108895583502
  H   -4.13726881025338      2.32783137824958     -0.00220991859430
  H   -0.16374474746332      3.18672486515938      0.00127729784475
  C   0.99293520027473      0.42197813635996      0.00088075792264
  C   0.32166473375915     -0.87305015027637      0.00033488081308
  C   0.88817054359349     -2.16582604386301      0.00059471356267
  C   0.00161663840785     -3.26838581703760      0.00009546005939
  N   -0.76675951045844     -4.13998124509406     -0.00029685693463
  C   2.25246814289602     -2.39530645447972      0.00136084230625
  C   3.33465526804391     -1.50306351952736      0.00203795193336
  C   3.42173257103183     -0.11811651072929      0.00208381108193
  N   4.64609050872619      0.45731936564220      0.00213424940954
  H   4.76283087643882      1.45449281141136      0.00441849859324
  H   5.47610961716033     -0.10461744771771      0.00429816806727
  C   2.29237744267474      0.81169123755685      0.00161612646456
  C   2.58271393254758      2.19726129237485      0.00213659217128
  N   2.88013860643337      3.32026508451113      0.00269278933046
  H   4.29881245493911     -1.99827972703641      0.00249808174236
  H   2.54132173597352     -3.43762765990719      0.00152011406114
  H   -2.57399431051396     -1.62331742147393     -0.00025048054367
