32
Coordinates from ORCA-job ./opt_b97-3c_parallel
  N   6.00628077541061      0.78978181933682      0.03678677348884
  C   4.85843086525532      0.60746862993231      0.01032734398396
  C   3.47224651557891      0.30745605809071     -0.00973962113788
  C   2.63598018947813      1.43839377884839     -0.07363909604192
  C   1.24831396501239      1.55993824926930     -0.08008256956179
  C   0.73311925044750      2.87976471367450     -0.13017497350410
  N   0.26705441947927      3.94359434140780     -0.17148637529787
  C   0.35206392567705      0.48868131236196     -0.04237327189290
  C   0.68953330904990     -0.97491850540737     -0.01206909369060
  C   -0.70636727101011     -1.27890719986533     -0.00045731140514
  C   -1.01167815791021      0.16841187686603     -0.01761651096361
  C   -2.26979620885495      0.80661896681913      0.00864193258894
  N   -2.36676060415266      2.13807907130697     -0.02338973035864
  H   -1.55850805654961      2.73700225647763     -0.06879535066240
  H   -3.26995805067379      2.58247311231347      0.00187271259469
  C   -3.46741149454338      0.03356106085937      0.08348366672378
  C   -4.66959705684652      0.77242181748642      0.12890238594508
  N   -5.62680169582632      1.43435595639038      0.16037254630407
  C   -3.63399709252512     -1.37651639178058      0.14602912131876
  N   -2.85608691731771     -2.42437953537072      0.08506992763105
  C   -1.50008059589930     -2.40117408545316     -0.03257068850332
  N   -0.96080696098529     -3.65260447477303     -0.13820889417724
  H   -0.08659375485680     -3.75682301850168     -0.62083897767362
  H   -1.63864300193004     -4.37749505034120     -0.30665597093309
  H   -4.68049572702405     -1.65042919939173      0.25538005852013
  C   1.86341498166117     -1.64328204315484      0.04896871762834
  C   3.16649503754018     -1.07531810794989      0.05432579075273
  N   4.19667436271306     -1.96757117155426      0.08198629273179
  H   4.01214694404335     -2.91334854841956      0.35974407203045
  H   5.13542620112328     -1.64146393230170      0.23768203079210
  H   1.82700600336319     -2.72521692203815      0.11447693041440
  H   3.17339556197254      2.37493267906204     -0.10967173764496
