27
Coordinates from ORCA-job ./opt_b97-3c_parallel
  N   3.86809842862072      2.29856047314912      0.10672007199907
  C   2.94907100969101      1.26934965581343      0.03152423456562
  C   1.57990307233161      1.68241216749351      0.06693385697826
  C   0.55162904784562      0.81325910694561      0.02501426015756
  C   0.54605492759973     -0.69551306380430     -0.03773879164031
  N   1.48932309330505     -1.61423386425066     -0.04285161370894
  C   2.78115450740909     -1.29021169425441     -0.03254249581381
  N   3.61878843304776     -2.38673886926668     -0.10026549335339
  H   4.53269141063287     -2.30184866129095      0.30882202100984
  H   3.15336101823801     -3.25569034456232      0.10111670498357
  C   3.43051713015349     -0.02715895111046     -0.02257134202099
  H   4.51276263060524     -0.09838642374949     -0.06814281683432
  C   -0.85877401223916     -0.68971689623439     -0.03765368026030
  C   -0.88879676295950      0.78998863807723      0.02356774027093
  C   -1.95191721580331      1.62268694108550      0.06614028922698
  N   -3.26369746979879      1.26659925631450      0.05023810613970
  C   -3.72687147500279      0.02664716948118      0.00063174040061
  N   -5.07460454269258     -0.04557821003303     -0.01970489954501
  H   -5.51334966702736     -0.94655037298081     -0.04763366594166
  H   -5.61176292801192      0.80134476602867      0.00464902780681
  N   -3.21405419882569     -1.27319701012400     -0.03339960508999
  C   -1.93409123391191     -1.56770069085688     -0.05260124494890
  H   -1.71702501033001     -2.63371359339077     -0.08222909436438
  H   -1.79074272150021      2.69556560099539      0.11596141292227
  H   1.38132759674996      2.74700177068899      0.13096982446592
  H   3.55780610656474      3.19960983840891     -0.21248238875518
  H   4.80977757570812      2.08740144652691     -0.17504343004995
