27
Coordinates from ORCA-job ./opt_b97-3c_parallel
  N   -5.58698117951886     -0.94025646668199      0.01281324487682
  C   -4.43987599034450     -0.76526658712802      0.01459984409115
  C   -3.02628072095260     -0.56817103594790      0.01664594207084
  C   -2.27678043106964     -1.77373551953774      0.06474572415213
  C   -0.90580055527300     -1.95384989914523      0.07144397936999
  C   0.03507817978414     -0.94413631985053      0.02715248200271
  C   -0.17147975947775      0.54328365759293     -0.00980975207279
  C   -1.31387573147841      1.29273922083067     -0.03151633860372
  C   -1.17246988913202      2.70849283752153     -0.06613692499687
  N   -1.03193510717132      3.85965572756570     -0.09413794044792
  C   -2.63102848544241      0.76269864568786     -0.02473314563503
  H   -3.42664445253801      1.49227834808034     -0.05301999962339
  C   1.24488436566964      0.72755348528401     -0.00504542416558
  C   1.42385452383600     -0.73358445575198      0.03153949742903
  C   2.62539818515946     -1.47568350736088     -0.00153125609651
  N   2.55745052148202     -2.82111696746018     -0.05327523357913
  H   1.69745037793949     -3.29164935363404     -0.26308616211034
  H   3.42171432037977     -3.32271207645054     -0.16632852455910
  N   3.86834468180899     -0.98751570170242      0.03554241839805
  C   4.21994999217848      0.30183936003373      0.07097543301318
  C   3.53855652754525      1.51538777542115      0.03692305021689
  C   2.15729894212432      1.74308890673053     -0.00224666148830
  H   1.80343873034879      2.76603776054018     -0.02388580346776
  H   4.17652043129735      2.38886722731704      0.05438135352627
  H   5.30001280111694      0.41185925577894      0.12233252618473
  H   -0.56522320552051     -2.98228925095226      0.12715291771206
  H   -2.87517531205163     -2.67283450508092      0.10225769570255
