28
Coordinates from ORCA-job ./opt_b97-3c_parallel
  N   5.20679446701268      1.06507253040643     -0.01049261893543
  C   4.19653201016368      0.48325784898459      0.00729957466515
  C   2.93570351415276     -0.14491365743615      0.02205905764212
  C   1.82719429649391      0.72651299448553      0.00206380303645
  N   2.02064139620438      2.06446272800189      0.01609186120199
  H   1.25706245353472      2.67094347057636     -0.21509908661647
  H   2.94879367936020      2.43698736585368     -0.10007309922301
  C   0.49176291665395      0.26359007780482      0.00018385656209
  C   -0.02450392360376     -1.11097539336487     -0.02531361167187
  C   0.55088959171521     -2.32737097475308     -0.00838973668125
  C   1.96285323106059     -2.52533941729722      0.03171314356074
  C   2.94632897996329     -1.58216176915448      0.04677142629211
  H   3.95312304509495     -1.98091675628071      0.07243028893266
  H   2.30022529562100     -3.55317814110480      0.05071199809351
  H   -0.08963383631454     -3.20026918593209     -0.02249672082858
  C   -1.37848456373535     -0.55304363462131     -0.03549577792972
  N   -2.54277482865094     -1.08270595241306     -0.06167067964728
  C   -3.68854951521435     -0.31208535190635     -0.05879236819815
  N   -4.80731982217793     -1.09809398306659     -0.16712873174304
  H   -4.66938736840208     -2.07036291637448      0.04578500275092
  H   -5.69537182795876     -0.71403792022643      0.10047234467876
  C   -3.82359115797466      1.06731731489836      0.00328680879730
  C   -2.86584556962086      2.09686721372615      0.05953179517095
  C   -1.48805143674706      2.03071815702151      0.05939072217483
  C   -0.79494846489515      0.82510861377425      0.00117993528618
  H   -0.95004511274791      2.96947893062941      0.12813212945827
  H   -3.28870112856186      3.09239741309855      0.11554480775816
  H   -4.85112495842586      1.41426147226997      0.00290016991262
