30
Coordinates from ORCA-job ./opt_b97-3c_parallel
  N   -4.29739948235075     -3.52137718483076      0.00008705195654
  C   -3.58223545609014     -2.60470222757716      0.00017154444492
  C   -2.67083095473462     -1.51825537027553      0.00013191100089
  C   -1.26414116544440     -1.88825418273508     -0.00029754276547
  C   -0.28275596859622     -0.98099199765347     -0.00037771076493
  C   -0.25884256728305      0.47930524848676     -0.00010283973933
  C   -1.30725990054617      1.43537494499709      0.00031399844563
  N   -0.92340419922490      2.72043164932293      0.00044292905343
  H   -1.59761935762310      3.46731164417540      0.00067774938849
  H   0.05940140062122      2.94079697215483      0.00021315527140
  C   -2.66158512230443      1.06196929998590      0.00056281128492
  C   -3.57843001014470      2.13293503055364      0.00095357060539
  N   -4.26812415553426      3.07190135522784      0.00095805017372
  C   -3.21872574505740     -0.26068920716507      0.00050009065247
  H   -4.30061728188392     -0.24934174965367      0.00078702747877
  C   1.13394286965217      0.52922250040660     -0.00046131607510
  N   2.04885924812114      1.49724546126344     -0.00055457239385
  C   3.33975607816491      1.18510476403418     -0.00094923474746
  N   4.18353900274044      2.24349377824903     -0.00093622775852
  H   5.17230263394045      2.08781349399698     -0.00158624868713
  H   3.81273657275132      3.17403300517164     -0.00102028630756
  N   4.02519988521574      0.00503362836197     -0.00129532785566
  C   3.60006518670600     -1.23225286354156     -0.00144793273638
  N   4.57182578302311     -2.17192989934773     -0.00201034233495
  H   5.53023170311218     -1.87253423707427     -0.00165497949996
  H   4.36768355310635     -3.15256153287335     -0.00133573401974
  C   2.24591322041044     -1.76971981329227     -0.00122146253775
  C   1.19548795631852     -0.94565905010162     -0.00075978997658
  H   2.11540980881909     -2.84501501543037     -0.00145239614514
  H   -1.03063620438494     -2.94372530653625     -0.00056435241111
