27
Coordinates from ORCA-job ./opt_b97-3c_parallel
  N   -4.76992562949409     -0.13144532968453      0.09461780140459
  C   -3.41939214099725      0.04875643268216      0.04254139118690
  N   -2.78309761711651     -1.14118746228224      0.01357114089717
  C   -1.46412678419849     -1.32173337949074      0.00250303844382
  N   -1.04930485887427     -2.60243745203519     -0.01716778941897
  H   -0.06597829364316     -2.81333782481846     -0.04155148079103
  H   -1.73148654163955     -3.33838484563954     -0.02767778248133
  C   -0.46429594868898     -0.33203550312354      0.00447172152260
  C   -0.57156878361069      1.14116697289104      0.01536546304366
  C   0.84395252301135      1.25511043388949     -0.00017624528375
  N   1.73550034483214      2.19645688910069     -0.00403783195896
  C   3.04249909908740      1.83022373782783     -0.02462433486521
  C   3.66440378755462      0.59581499251638     -0.03860621748973
  C   3.17153178718638     -0.73659665881377     -0.02952578440333
  N   4.10844559144864     -1.74837320425791     -0.09142245001010
  H   3.75346016366515     -2.65257363837889      0.16890992379752
  H   5.02617187857530     -1.54831272103831      0.26522149832867
  N   1.90155956577660     -1.16869005411945     -0.01564452430372
  C   0.92529098330523     -0.29020973838622     -0.01256220986278
  H   4.74679882972248      0.66362812384587     -0.07050835182881
  H   3.71893724187936      2.67823831148312     -0.03144869157165
  C   -1.69962919632986      1.91601145139237      0.03909001313867
  C   -2.99159814980575      1.40150713600298      0.05102899314001
  H   -3.79494711500173      2.12678057468047      0.08453943292291
  H   -1.58846647699019      2.99351356153710      0.04694634102795
  H   -5.10440003818994     -1.06282714678422     -0.07523628349166
  H   -5.39261562956420      0.63246215660350     -0.09025875919344
