30
Coordinates from ORCA-job ./opt_b97-3c_parallel
  N   5.17397546918637      1.58993454494747     -0.04959681549456
  C   4.27201366200949      0.85084943272429     -0.03449256509225
  C   3.13011730958665      0.02789838978224     -0.01827365233954
  C   1.90238518559988      0.70202963886460     -0.03379354096969
  N   1.82105918434482      2.04500355069104     -0.05942515945585
  H   2.64742513427961      2.61745035771121     -0.07559829052838
  H   0.91405823188000      2.48137032114048     -0.07263797358414
  C   0.65840500546228      0.01684418847749     -0.02271427083765
  C   0.33456167585711     -1.40787478663340      0.02064372514487
  C   1.09388427852072     -2.51562812081640      0.04972241067602
  C   2.52893409512650     -2.47701859070671      0.04187490522688
  C   3.35773163801012     -1.40012495780917      0.01279318786527
  H   4.41337682718028     -1.64246036646653      0.01479760976583
  H   3.02256492646846     -3.44020360841775      0.06366022657910
  H   0.61663167098614     -3.48744414148371      0.08122804301214
  C   -1.09116728037987     -1.03464739629533      0.01822357377246
  C   -0.68334377344879      0.39038998881731     -0.03008415736198
  N   -1.33765357266860      1.55566656512668     -0.01884921299061
  C   -2.65688759088860      1.59262999183600     -0.01905496541508
  N   -3.19302169141690      2.86279984589437     -0.07391097375119
  H   -2.53164252960112      3.59113723677261      0.13627363773989
  H   -4.10183426396899      3.00235546808933      0.33160331587585
  C   -3.63236315179710      0.53795762234930     -0.03320292038381
  C   -3.51840314065823     -0.83112408630705      0.01238353185311
  N   -4.66417777517154     -1.59020196477852      0.06619144844745
  H   -4.60044807154488     -2.54159111572656     -0.25003454226903
  H   -5.53103127563212     -1.14271209020294     -0.17600668366749
  C   -2.29722254371010     -1.60894483201277      0.05233167043474
  H   -2.38918758463232     -2.68726871996226      0.11223396909892
  H   -4.65323434827924      0.89973702019460     -0.09706231295121
