28
Coordinates from ORCA-job ./opt_b97-3c_parallel
  N   -4.91589986201970     -1.79348416449837      0.04590837244008
  C   -4.07204864620827     -0.99080784668287      0.02625159001761
  C   -2.99721515705718     -0.07739080914175      0.00431087031536
  C   -3.38504588593263      1.30530081648444     -0.03393981801329
  N   -2.77061935895853      2.45667768846974     -0.05691525921357
  C   -1.41436771128103      2.60432896131305     -0.04943347541219
  C   -0.48863541505421      1.62259976385653     -0.02901952389254
  C   0.95636644993923      1.53956759541622     -0.01977419847867
  C   0.85567621483771      0.05362847603054      0.00151838069416
  C   1.90944864915471     -0.87738329495004      0.00139077379364
  C   1.60137912920682     -2.25064016206422      0.00978983927762
  N   1.35874434410467     -3.38997900928823      0.01775905339689
  C   3.28370843083669     -0.53361622513958     -0.03098598798566
  N   4.20506915330579     -1.52136010791955     -0.15652713988754
  H   5.16372215698826     -1.26392581414695     -0.00982842628738
  H   3.95478652991614     -2.49236773728343     -0.10683082540461
  N   3.88055958618605      0.68619645724971      0.05361048459703
  C   3.36911360545034      1.88140909113601      0.07471314901138
  C   2.02620939711953      2.35711827452910      0.00587436548674
  H   1.88649603564383      3.43071009577106      0.00704031298809
  H   4.12093520571366      2.66237587868860      0.16454723558495
  C   -0.53959053617936      0.14724479350233     -0.00088434768584
  C   -1.70320344174337     -0.66500186012255      0.01680887213212
  N   -1.59335945629784     -1.99501671752288      0.04751116968801
  H   -2.41862230636684     -2.57290535186982      0.05717608760400
  H   -0.70204210286775     -2.46119162723820      0.05061560009666
  H   -1.07738710414581      3.63553738022523     -0.06490059417581
  H   -4.46785437459092      1.40866275999580     -0.04575653658723
