30
Coordinates from ORCA-job ./opt_b97-3c_parallel
  N   -6.11606565604036     -0.48940060706199      0.00189979299390
  C   -4.95968864367528     -0.36708598390208      0.00146894826780
  C   -3.56226823143831     -0.13097319153875      0.00139588658506
  C   -2.77331520469774     -1.30162103988978      0.00000491685787
  C   -1.39611582854979     -1.47209599087007     -0.00021294034035
  C   -0.87689221488410     -2.79277565038234     -0.00165868836665
  N   -0.40248108558078     -3.85234926030493     -0.00251651029505
  C   -0.47837584362947     -0.41859986749773      0.00096407507134
  C   -0.73712710780045      1.04101080242283      0.00257081604875
  C   -1.87366503028547      1.76779213910697      0.00331909476054
  C   -3.20054613129606      1.24319033454324      0.00279383501155
  N   -4.18878006909124      2.16672303833198      0.00344527995933
  H   -5.15809452948473      1.90109837169774      0.00437285513643
  H   -3.97495564136752      3.14515872676954      0.00620386122342
  H   -1.78490442139017      2.84836494788533      0.00438406966460
  C   0.69399513599507      1.27198184959365      0.00284331212809
  C   0.90444186249786     -0.18728130608177      0.00123877305526
  C   2.09452811737594     -0.89514247154148      0.00023351920601
  C   3.34882838949980     -0.31620369590621      0.00081228836071
  C   4.45378675800193     -1.19303322439971     -0.00043030279420
  N   5.40314159580775     -1.86769225306812     -0.00119096472431
  C   3.67596739465555      1.13893485736099      0.00285336029351
  N   4.99689119870118      1.39628205898719      0.00371872659314
  H   5.27710401697588      2.36113194531401      0.00503361701679
  H   5.69532373583265      0.67386949985691      0.00300460006416
  N   2.92764145557450      2.22225064718479      0.00397030131196
  C   1.57581463277376      2.29591134527915      0.00385095410851
  H   1.19942486656662      3.31426164381469      0.00479761734530
  H   2.05248941610235     -1.97711555911615     -0.00113226168593
  H   -3.34944475184946     -2.21586978638785     -0.00094483435757
