31
Coordinates from ORCA-job ./opt_b97-3c_parallel
  N   -4.12044800383211     -2.93877148082706      0.12881008618766
  C   -3.29718372215281     -2.11310565502462      0.09204357478039
  C   -2.28077646876910     -1.14425372242718      0.04347242725834
  C   -0.96282802922695     -1.67048552287907     -0.00560435947781
  C   0.16743000221453     -0.85514927255843     -0.02412117904428
  C   0.34209084213086      0.60797864780987      0.04588865779178
  C   -0.55536573461509      1.65416407998377      0.03651163338164
  N   -0.07471941892884      2.91696500842635      0.10164815122353
  H   -0.67692261331202      3.70743940856904     -0.04558372477991
  H   0.91691330637332      3.05595456526667      0.01353925250637
  C   -1.97336921928944      1.45059137232099     -0.01902691147740
  C   -2.73569521265665      2.62886557240024     -0.07803873651605
  N   -3.35388509550313      3.61725561578324     -0.12740857732104
  C   -2.71617035283729      0.23028914990057      0.00527322495577
  N   -4.05721115493694      0.38086970705834     -0.00728419853717
  H   -4.47645098824319      1.29373970156677     -0.01313597374443
  H   -4.67019346568680     -0.41463344257709     -0.01276337327281
  C   1.74259877368355      0.45337653362750      0.02265068849962
  N   2.79030344346517      1.21771475295398      0.03174898944924
  C   4.01242961701656      0.59932945628929     -0.00355925190089
  N   5.04533625959299      1.47497340826764     -0.03329159300066
  H   5.97530958953426      1.11543982568440      0.07293937788306
  H   4.86631436970172      2.44752957606037      0.13097573823118
  N   4.38200852267776     -0.68559461575913     -0.02573126334511
  C   3.68371449110553     -1.81285021474468     -0.04729831261688
  N   2.36747270382842     -2.08887762072421     -0.05702261885524
  C   1.54328521397732     -1.06735972770634     -0.03159919792282
  H   4.30802761738192     -2.69987458213062     -0.06007239019669
  N   -0.76073913899392     -3.00004310755159     -0.02606523066942
  H   -1.52395281169070     -3.65316116445571     -0.01519421861628
  H   0.18290292129102     -3.35100933360330     -0.03790132835368
