32
Coordinates from ORCA-job ./opt_b97-3c_parallel
  N   -5.28409472815919     -2.60532558813363      0.04775125582447
  C   -4.40349834862934     -1.84058802295426      0.02403704794673
  C   -3.38478008464594     -0.87117055426601     -0.00024356091027
  C   -2.03826867528277     -1.36432750039768     -0.00909960156208
  C   -0.93867694192266     -0.59414201523668      0.00975516001147
  C   -0.73628503355621      0.85953535163125      0.04428050203594
  C   -1.69344939114926      1.91068674435493      0.02245292572026
  N   -1.17162157529490      3.16303663452985      0.06181375283489
  H   -1.74767867810654      3.96235310236380     -0.12832621741594
  H   -0.17753316694673      3.26898614816075     -0.05654999052439
  C   -3.05176801468800      1.69275233105346     -0.02216715478651
  C   -3.81194685446790      0.47639063190872     -0.01758395668325
  N   -5.15550100317428      0.69264079744061     -0.07457996029328
  H   -5.78768532089525     -0.08103857021325      0.04582102732328
  H   -5.51817979418482      1.60207427188223      0.14031498276773
  H   -3.66002960417786      2.58944169290867     -0.06691900099726
  C   0.64439548548474      0.75807197579722      0.02771192362079
  N   1.67255051616212      1.60203688115115      0.01914172379895
  C   2.90967850414442      1.14138018073397     -0.01367405040675
  N   3.87119611757355      2.10625019596014     -0.08885528717771
  H   4.82775603289343      1.89357754296046      0.13106432260489
  H   3.55853153177250      3.03990515227487      0.10691149894923
  C   3.38922802852623     -0.23594290439422     -0.01711480291696
  C   4.78985970444261     -0.37937193116425     -0.01059876847663
  N   5.94673142883166     -0.52118741036123      0.00223625959329
  C   2.68807893694558     -1.46432494587653     -0.01472617366500
  N   1.33289338357111     -1.72066794614830     -0.01913036774008
  C   0.51147364688068     -0.73770151130793      0.00255846553047
  N   3.38102148766287     -2.61793294501689     -0.01009941976445
  H   4.38453555157721     -2.65098107605470     -0.01432377477685
  H   2.85406640890142     -3.47137027992899     -0.01688782153586
  H   -1.91901899348840     -2.43918390665764     -0.02781737692915
