32
Coordinates from ORCA-job ./opt_b97-3c_parallel
  N   -6.30194454937897     -0.14805794931177      0.04296864881870
  C   -5.13950957700800     -0.17088860483435      0.00738956765879
  C   -3.72306535091971     -0.13112005640176     -0.02371597786956
  C   -3.12598753132557     -1.41633970001396     -0.07717078537498
  N   -1.86192391402002     -1.81759253085445     -0.09880030467488
  C   -0.88027399417658     -0.94111014480022     -0.08372659344378
  C   -0.78913823743030      0.57951812184564     -0.03968086491509
  C   -1.78169247826549      1.49906275156841      0.01813201151593
  C   -3.16458816963822      1.17836115202047      0.02078732344544
  N   -4.02146872242523      2.24264465141343      0.03015497130656
  H   -3.66927847528201      3.13805397768902      0.31322973162118
  H   -4.99922417440769      2.08673976765902      0.20780134887726
  H   -1.53794761273781      2.55517463476029      0.07380400575641
  C   0.62890353235493      0.44949772711601     -0.03798381197923
  C   0.50814385199288     -1.01291977065089     -0.07711222465885
  C   1.47402468837363     -2.02977944231519     -0.02722781747847
  N   1.03461300812572     -3.30087982971783     -0.07427520933777
  H   0.04531070058849     -3.48876139381733     -0.07124510869676
  H   1.69268020675482     -4.04979200214377      0.04219194906658
  N   2.78811116309027     -1.86134572021499      0.06521818874070
  C   3.46498145365780     -0.70376958616875      0.08412090870456
  N   4.79418430205231     -0.92810672288745      0.19450729038136
  H   5.10005165544833     -1.88274302306690      0.16578546678298
  H   5.47253655393569     -0.18856833566978      0.17049583662037
  C   3.07446768679870      0.68015607546394      0.00514001608862
  C   4.12607927823727      1.60812780981383     -0.03290802682694
  N   4.99449612719340      2.38771723203558     -0.06958179726680
  C   1.75645602619621      1.24085609623944     -0.02883337710616
  N   1.63372754050882      2.60231684373821     -0.00671504352362
  H   0.77923309681958      2.98568493857504     -0.36634561125391
  H   2.45207074228980      3.15538468997765     -0.20120118076515
  H   -3.84444732620304     -2.22753986404659     -0.09496154451349
