25
Coordinates from ORCA-job ./opt_b97-3c_parallel
  N   -4.87342136557218     -0.31065540283678     -0.04826355509493
  C   -3.52295771562766     -0.14662635228388     -0.03799475724936
  N   -3.14053604598031      1.10638917353318     -0.04807610933460
  C   -1.84651788807301      1.54840105718313     -0.06245310296081
  C   -0.72029057896806      0.80662111666014     -0.01452299012984
  C   -0.49264091658679     -0.65319163517484      0.02629475536017
  C   -1.46878715701780     -1.66150683004614     -0.00113357441209
  C   -2.80559449928794     -1.43323732361975     -0.04334039723013
  H   -3.44760824364069     -2.30455625096657     -0.08263515577109
  H   -1.13448207481475     -2.69307042135587      0.00305218550603
  C   0.88941157547073     -0.50486632062771      0.04583097503197
  N   1.95013503560945     -1.30874429779278      0.04701926163456
  C   3.16410734880395     -0.79588137801944      0.05245523726549
  N   4.19022929875783     -1.70859620511346      0.11958462571661
  H   3.91792887261875     -2.65712681636008     -0.07520083903407
  H   5.08886987614374     -1.44176784274402     -0.24082658542798
  C   3.57550466513885      0.59128652054145      0.04801254517757
  C   2.86634815251963      1.75405477534659      0.01461424091112
  N   1.51273776470215      2.01318857560018     -0.01858223717659
  C   0.71630049306556      1.00461403609454      0.00094520953757
  H   3.46107436495697      2.66073659228230      0.01376923670123
  H   4.64991116254544      0.73513462922425      0.08546686213998
  H   -1.75372127984468      2.62764756024632     -0.10125315465750
  H   -5.29410476328217     -1.19542638248490      0.16484408128866
  H   -5.42802789783697      0.52009088711416      0.06654777130803
