28
Coordinates from ORCA-job ./opt_b97-3c_parallel
  N   -3.50697905471411     -3.88844659293347      0.00161521188409
  C   -2.91779781197432     -2.88668461318039      0.00124505760254
  C   -2.16474933742038     -1.68394889544406      0.00040977963504
  C   -0.72840760134960     -1.84672448198282      0.00066071245943
  C   0.11799655840490     -0.80802983101829      0.00043918432675
  C   -0.06668506511299      0.64133473624258     -0.00003619594747
  C   1.29865663515482      0.90549939940710     -0.00064518149465
  N   2.06550141190557      1.99693330256337     -0.00183996961138
  C   3.37728043885831      1.82633901450582     -0.00131283615559
  C   4.17737908138818      0.66557567309353      0.00039633254967
  C   3.86091822181702     -0.69068356406009      0.00164115329484
  N   4.84521520840687     -1.61364499810551      0.00168633287667
  H   5.81521753873056     -1.36246196127648      0.00694467252639
  H   4.59017504421678     -2.58372395661806      0.00780202767040
  N   2.61208739602696     -1.30980393856321      0.00208366898136
  C   1.57427541182373     -0.56789543704994      0.00115942847790
  H   5.24053682346776      0.87741633221352      0.00044916393460
  H   3.94207194246982      2.75306439429490     -0.00203580431027
  C   -1.23842557771612      1.43757779397296     -0.00049471538994
  N   -1.04322707092578      2.76134147305595     -0.00082819006809
  H   -0.10102026132931      3.12181682320494     -0.00042126463597
  H   -1.81705312486060      3.40515179170607     -0.00123399063013
  C   -2.52892122741876      0.87135851141165     -0.00061423604224
  C   -3.59179550543120      1.79976271587088     -0.00110536536675
  N   -4.40946506531124      2.62874679339113     -0.00166339478104
  C   -2.88702864146363     -0.51088507254589     -0.00011824662572
  H   -3.95925623248467     -0.65632469182373     -0.00002963703664
  H   -0.33720066505858     -2.85440791713245      0.00131842807622
