32
Coordinates from ORCA-job ./opt_b97-3c_parallel
  N   4.79319725798932      2.51904809513598      0.22408336194024
  C   3.90667814114416      1.76333150953958      0.14694676084261
  C   2.88329349801833      0.80501632662543      0.05690132566802
  C   1.54649628428156      1.29432059812732      0.01804370821949
  C   0.43536637629768      0.53176422638082     -0.02497949350634
  C   0.20548049036227     -0.92574978621203     -0.02802676449119
  C   1.15404229766797     -1.95599361049425     -0.07756407919015
  N   0.68600520843944     -3.24846272608417     -0.10692336348726
  H   -0.23740814502255     -3.37105096061698     -0.48396060361447
  H   1.33265938492326     -3.95897833303702     -0.40456967732515
  C   2.52950064532328     -1.74823518802824     -0.06304738121625
  C   3.29865356584740     -0.55847517634643      0.01469335182404
  N   4.64287573607372     -0.77015906422280      0.00176789784631
  H   4.99964513821579     -1.68882781440268      0.18455375834155
  H   5.26965515669793     -0.00094757587884      0.16783111233197
  H   3.12630301564959     -2.65115785504671     -0.13343141425974
  C   -1.18924749722478     -0.77298684556574     -0.01427630051274
  C   -0.99497306877453      0.72591417802754     -0.02168090882965
  N   -1.76306375699566      1.75688787884373     -0.03225124301612
  C   -3.12639583477253      1.62911403674148     -0.03710483383769
  N   -3.73906545078891      2.86392911021111     -0.04603859989517
  H   -3.13390302382362      3.61646796801645     -0.32608048782079
  H   -4.67698162623023      2.92248466257779     -0.40060207946320
  C   -3.92663053188324      0.49674889652831      0.01551577470877
  C   -3.62924148364184     -0.88217757816156      0.07901892576200
  N   -4.73381564322005     -1.73032946535725      0.10091214239806
  H   -4.55389103052443     -2.65423701897585      0.45592411678812
  H   -5.56888603049997     -1.33939883311312      0.50399020083828
  C   -2.36805385038376     -1.48337980345617      0.06188092998643
  H   -2.34049084758130     -2.56628405186506      0.13233053871806
  H   -4.98999768662099      0.71529709496034      0.01640560425835
  H   1.42550864405604      2.36975232495036      0.03790592139342
