32
Coordinates from ORCA-job ./opt_b97-3c_parallel
  N   -6.23240449135532     -0.60220524424280      0.01034793099306
  C   -5.07068766751351     -0.63958726725587      0.00354379118335
  C   -3.65097175226023     -0.62970335205682     -0.00219371179212
  C   -3.07607397149957     -1.89719205110435      0.00012664996527
  C   -1.73706896716876     -2.29810441175948     -0.00142942740586
  C   -0.68176030050599     -1.44223525630867     -0.00270940045283
  C   0.73822974546967     -1.48610915028160     -0.00122958498725
  C   0.78587751521821     -0.00967543855313     -0.00037965747754
  C   1.93268364245523      0.80830806247072      0.00048153817805
  N   1.81441085862907      2.14384610856728      0.00018338246061
  H   2.62966016668580      2.73287877689188      0.00062177895376
  H   0.91988153335403      2.60015551595104     -0.00021684499955
  C   3.24859874559677      0.25777823602294      0.00148963843649
  C   4.28556262255971      1.20465299674584      0.00224843110116
  N   5.14170540813949      1.99778555899722      0.00293456086282
  C   3.67547438115428     -1.12893733882389      0.00236453363266
  N   3.02233356810228     -2.29608983616376      0.00140903359174
  C   1.69926570146986     -2.45371617962668     -0.00039042692356
  H   1.37589224074004     -3.49074173126228     -0.00129804264037
  N   5.01156065520374     -1.31828600094382      0.00447074256422
  H   5.67583719459915     -0.56532612768074      0.00505247064935
  H   5.33264042041453     -2.26941303023443      0.00451429316208
  C   -0.62047822897712      0.05767970996502     -0.00201429610903
  C   -1.67139224513538      0.97921727789297     -0.00470694019921
  C   -1.34518023930981      2.35218491634103     -0.00208021886787
  N   -1.10162318861654      3.49027503256757      0.00180192153172
  C   -3.06311033634321      0.68428674210090     -0.00798791310949
  N   -3.92490476190261      1.73140127960717     -0.02958251547315
  H   -4.91653687415194      1.58425741245597      0.01936044690632
  H   -3.59560210612396      2.67787994281647      0.01790186608960
  H   -1.54274384052708     -3.36298198723390      0.00000981766805
  H   -3.79797970000083     -2.70291815876175      0.00468026740750
