27
Coordinates from ORCA-job ./opt_b97-3c_parallel
  N   6.38551472076425      0.38633649899439     -0.00092236507572
  C   5.22690744842310      0.31307828812920     -0.00114733322733
  C   3.80567278501267      0.21200963561083     -0.00127234690214
  C   3.33174600043254     -1.13526875688019     -0.00090024836833
  N   2.10110024698965     -1.62672934745726     -0.00083538567504
  C   1.04303260301198     -0.84853409778293     -0.00116004190235
  C   0.82665838003201      0.65251946138479     -0.00167125970420
  C   1.73810202201807      1.66025404987383     -0.00191636592949
  C   3.12550502265234      1.43110194839559     -0.00171910579678
  H   3.75397561920228      2.31136516399131     -0.00193400896849
  H   1.40438380937317      2.69128451537544     -0.00226694815114
  C   -0.58006878627724      0.41263895135967     -0.00169833087776
  C   -0.35135933200279     -1.04764481247646     -0.00118652039031
  C   -1.26565291950190     -2.08167815073972     -0.00088466904320
  C   -2.63623598415162     -1.94418223359216     -0.00101380740151
  C   -3.44448200729150     -0.77293262593521     -0.00148067634838
  N   -4.77211844201790     -1.00188907746044     -0.00148523406714
  H   -5.43621740104943     -0.24604292349249     -0.00176651570147
  H   -5.13093040168641     -1.93803109288096     -0.00113818087290
  C   -3.04374846786744      0.60891687023587     -0.00194707288704
  C   -4.09460441997705      1.54873463457158     -0.00235269187125
  N   -5.00317605176884      2.27806631898571     -0.00259677017973
  C   -1.73596608574926      1.13348027035798     -0.00203486027696
  H   -1.66612041338773      2.21449049517728     -0.00240814239864
  H   -3.20014790500835     -2.86877685703196     -0.00071823629618
  H   -0.87596641844373     -3.09294036266597     -0.00050218551960
  H   4.11188896636918     -1.88706655034773     -0.00060696916691
