27
Coordinates from ORCA-job ./opt_b97-3c_parallel
  N   -0.92284285595625     -3.98504022733582      0.02632387548874
  C   -1.25292817286205     -2.87153720909824      0.01171606433703
  C   -1.62110953709668     -1.50190096151578     -0.00530562419202
  C   -0.60460758807381     -0.55405493063319     -0.00567647084378
  C   -0.70926187335755      0.93756112323038     -0.02380447961128
  C   -1.77664804524274      1.77252213745885     -0.04522120329227
  C   -3.13687233108710      1.36697510100328     -0.04080900831728
  N   -4.06750073436270      2.38358487070066     -0.10833427695005
  H   -3.77517250617309      3.29379659356056      0.20095719983651
  H   -5.01166090534032      2.15989286749226      0.15335479864204
  C   -3.62172729912806      0.05255180359042     -0.03078171598946
  C   -2.98588670876112     -1.18104230448298     -0.01940720480059
  H   -3.65329790490063     -2.03236060600478     -0.01313391565182
  H   -4.70426458636939     -0.01845034643457     -0.03837793365593
  H   -1.58375338924501      2.84015655307124     -0.07017421959133
  C   0.72537151614025      1.01466540350009     -0.01527917319231
  C   0.79816614893733     -0.46092145725713      0.00252579870157
  C   1.92735351951910     -1.26400729471709      0.01877286535690
  N   3.18460031119572     -0.86842437594688      0.02191635599787
  C   3.60845945697141      0.44568744199977      0.00887142910099
  N   4.95462305658227      0.48608035142709      0.01571634350340
  H   5.46884658618784     -0.37506080154476      0.02641864882764
  H   5.41973310074881      1.37506922844913      0.00579524403608
  N   3.05580393375321      1.66513997253902     -0.00803993633179
  C   1.73577897835014      1.92365099335898     -0.01919566924819
  H   1.49544275870949      2.98345966307100     -0.03300652978638
  H   1.79334958256093     -2.34246836308152      0.03054728152574
