29
Coordinates from ORCA-job ./opt_b97-3c_parallel
  N   -1.49287363764500     -4.07807994436174     -0.10287480274594
  C   -1.43829093430193     -2.91792591527045     -0.07363273627677
  C   -1.46006231304582     -1.50429246337575     -0.03606002166831
  C   -0.29835469949810     -0.81571112494564     -0.01322675728180
  C   1.13283878251045     -1.12184871151057     -0.01070087506404
  C   1.37092659156420      0.32114013761451      0.03647800614218
  C   2.68059421986664      0.93433002063497      0.00210314040866
  N   2.76199526662834      2.27042263331282     -0.05004780055838
  H   1.96006364089440      2.87812870377134     -0.03881370239880
  H   3.68194269989857      2.67665472363390     -0.07418575719427
  N   3.82074224661055      0.27988655741317      0.00635083941169
  C   4.03554168961641     -1.07154949848431      0.04906693135889
  N   3.31769999742399     -2.15747360691568      0.01961769849284
  C   1.94422924276511     -2.19285568987807     -0.03116188085623
  H   1.51867863215860     -3.18785191282640     -0.07739632624464
  H   5.10190835279738     -1.27241562071711      0.11122605053875
  C   0.00614816246140      0.62191077831049      0.02545378481052
  C   -0.89303575534327      1.71049938283991      0.02327937773999
  C   -0.37838279034425      3.01467336858325      0.05503275122847
  N   0.05128742241904      4.09856983086933      0.08431611896240
  C   -2.29490836357122      1.56044049899744     -0.03504279961575
  N   -3.06191057087132      2.67688861433973     -0.15013217964540
  H   -2.66416889523280      3.59032621065201     -0.02241686443697
  H   -4.04544985756953      2.56552104676320      0.01248377250276
  N   -3.05107993965954      0.44336206937623     -0.00123385301183
  C   -2.76883214316614     -0.82935984599438      0.01161411015482
  N   -3.83023248469377     -1.65684346140065      0.08074259030460
  H   -3.73535728608081     -2.65636950585421      0.07600603065886
  H   -4.74771836259165     -1.24987148537762      0.09250183308344
