28
Coordinates from ORCA-job ./opt_b97-3c_parallel
  N   -0.99274344673517     -3.98758060407513     -0.03951216759588
  C   -1.32400680085646     -2.87365134354677     -0.02387885293976
  C   -1.66994958651292     -1.49962422410804     -0.00586962245346
  C   -0.61960862498737     -0.56724069177743     -0.00105788672410
  C   -0.69607670092111      0.91737892636242      0.02369862960735
  C   -1.72974454672278      1.77989289590061      0.04570405120798
  C   -3.11261065056515      1.40141438419051      0.03433299968554
  N   -4.00158386088850      2.45358753007432      0.10509811374800
  H   -3.67976064083126      3.34780292634063     -0.22143125533687
  H   -4.95831248885919      2.26235077368850     -0.13668517492713
  C   -3.62733217534215      0.11078916224755      0.01391593814088
  C   -3.01461199236695     -1.14896799120198      0.00418931132189
  H   -3.70546295610271     -1.98151022480558     -0.00712494837046
  H   -4.71124189044830      0.06388400805045      0.01158112618222
  H   -1.51235513162298      2.84206541321013      0.08109765752090
  C   0.75775171171785      0.96172430240749      0.02198355540008
  C   0.77462343942495     -0.51328162974580     -0.00045791493797
  C   1.89188878361517     -1.35205105784346      0.00547282077117
  C   3.18058877958039     -0.90800096548388      0.02011516979235
  C   3.67973913634955      0.46380024124825      0.01547792044076
  N   5.03846232389160      0.53401537270107      0.02686639353042
  H   5.60483529108647     -0.26822368015185     -0.17438177010257
  H   5.44444875909466      1.44597289785170     -0.08897135729429
  N   3.09623409265669      1.64578687386881      0.02395751667960
  C   1.75507328753401      1.87268203987934      0.04296432550754
  H   1.49771459138425      2.92748514785150      0.06705165630053
  H   3.95174891461468     -1.66796529028546      0.04048306869830
  H   1.73057228851278     -2.42375726184787      0.00314861604699
