22
Coordinates from ORCA-job ./opt_b97-3c_parallel
  N   -1.66188450634756     -3.51959839127283     -0.07220447773566
  C   -1.75199800609698     -2.36255098775721     -0.07581778725097
  C   -1.80786198383200     -0.94325882372204     -0.07068368385282
  C   -0.59914168733286     -0.23795621253634     -0.10188442482269
  C   -0.38773065513518      1.25707082353233     -0.04969199022033
  N   -1.13711189653406      2.30089798814379     -0.01769398822573
  C   -2.49827621129110      2.17891117164402     -0.00961713184220
  C   -3.31553183400562      1.06948463713824     -0.01652155759838
  C   -3.04436440231310     -0.31407037441794     -0.03484126871872
  H   -3.90871150768239     -0.96337957532509     -0.01673515127533
  H   -4.37158970091726      1.31112827133867      0.00299503242063
  H   -3.00381360567765      3.13641331465298      0.01593813447774
  C   1.04324819097457      1.02155770232752     -0.04963458648683
  C   0.78026161116443     -0.43704238969988     -0.11314792126441
  C   1.71307038530131     -1.44659310652508      0.19512232738177
  N   3.00887145934463     -1.29970495856569      0.21682893571474
  C   3.68444222179221     -0.16371030572797     -0.15037356113353
  N   3.43970565207310      1.10979572828481     -0.06499710425185
  C   2.21346016476957      1.67693591789491      0.13114097877399
  H   2.22103191894472      2.73640431644913      0.35660516168513
  H   4.67609647398799     -0.39970643220141     -0.52887620537962
  H   1.33983154231327     -2.42335015295538      0.49275085050466
