35
Coordinates from ORCA-job ./opt_b97-3c_parallel
  N   -6.50567189977013     -0.34881003922225     -0.00161001810252
  C   -5.34946344568130     -0.22845296726642     -0.00940554886065
  C   -3.93307274752458     -0.15744975555609     -0.01297562501011
  C   -3.41619884832981      1.14066253294302     -0.03660466004243
  C   -2.09244698903272      1.60594470853944     -0.04275359515077
  C   -1.89474155890446      3.00812541261312     -0.07936948944033
  N   -1.67874390120510      4.14990333121059     -0.10689786860410
  C   -0.99732637563161      0.75580521753746     -0.01269578983706
  C   -1.03798194474121     -0.76794196931367      0.03913524565276
  N   -1.95208278014355     -1.69314437828044      0.04170040019151
  C   -3.27301651184001     -1.43232228550881      0.00898452878955
  N   -4.03842746554497     -2.54889844455615     -0.01981893751109
  H   -3.57896994698993     -3.42995484110940      0.11444658907728
  H   -5.03748608724005     -2.50870292588257      0.07052061900634
  C   0.36328715775849     -0.79189964247671      0.06199958078171
  C   0.40226500617143      0.68517698483847     -0.00124289701145
  C   1.50709848627747      1.55283968245547      0.01428106455616
  N   1.30799222108968      2.88015208009770     -0.00115890541374
  H   2.08238774946003      3.52133711230644     -0.00009552525978
  H   0.38513610640044      3.27992752970323     -0.01093283363999
  C   2.84902163507730      1.07250757314644      0.05989559436534
  C   3.82083478843846      2.08855901232993      0.12058396878503
  N   4.61319357534861      2.94250561363916      0.16724254609090
  C   3.37803793838810     -0.26617928733265      0.00074959529855
  N   4.72507459262051     -0.33415779746415     -0.02239139362861
  H   5.19737006298234     -1.22074708034508     -0.03696040471078
  H   5.29174128821615      0.49509306544328     -0.02116634068613
  C   2.71416132276554     -1.52748867929756     -0.03188345846460
  C   3.53725486384604     -2.66379385412023     -0.10547927972131
  N   4.20376132802197     -3.61882925367208     -0.16515546642737
  C   1.31586549549370     -1.79429760342866      0.03311108472311
  N   0.88660424540604     -3.07284026506353      0.07541918405076
  H   -0.10221207768620     -3.25063678347612      0.02530143564732
  H   1.52299416036271     -3.84095000377563     -0.04277466521974
  H   -4.16992733805941      1.91501549124452     -0.05311635307378
