28
Coordinates from ORCA-job ./opt_b97-3c_parallel
  N   -5.70281489150699     -0.54239742748329      0.02748817636566
  C   -4.54174199921353     -0.48048938973762     -0.00177746616808
  C   -3.12996005269964     -0.34473133867331     -0.02600145534144
  C   -2.43501513668588     -1.57278446879572     -0.01671310513856
  C   -1.07539753138510     -1.84991123966511     -0.00783865980113
  C   -0.08858061704625     -0.89503452095916     -0.00354456806790
  C   -0.22045096310766      0.60037031735057     -0.01273626596815
  C   -1.31165123786701      1.40926336599267     -0.04160222632613
  C   -2.66440565977058      0.99922749727267     -0.04819070367154
  N   -3.59482273846944      2.01028975676184     -0.13570539452501
  H   -3.30748376454816      2.92046802839772      0.17588806890884
  H   -4.55469117622044      1.79078474174019      0.07221443547474
  H   -1.13971369525174      2.48087245781231     -0.06954830525406
  C   1.20253361347705      0.71558615007893     -0.00189349612040
  C   1.31885015527006     -0.76198340057276      0.00704296409110
  C   2.44546032707491     -1.56179061510982      0.02019897332146
  N   3.71776146509789     -1.20296791982709      0.02640504400648
  C   4.18379826251126      0.08364853848396      0.02197564226481
  N   5.53915446953537      0.07916008169248      0.04505911982378
  H   5.99773134783545     -0.81153366410457     -0.01841314333978
  H   6.07786239668127      0.91924749564152     -0.04755883719985
  C   3.56071088242468      1.34822460294576      0.00955285017100
  C   2.19582402041649      1.64907465234871     -0.00118549760693
  H   1.92971656745604      2.70072352123917     -0.01047547342960
  H   4.23661504386514      2.19453994076200      0.01349312052502
  H   2.29627131900147     -2.63988977276740      0.02517091699296
  H   -0.79019146659551     -2.89517871392313      0.00014827942395
  H   -3.08546716947917     -2.43695126210157     -0.00626495601123
