30
Coordinates from ORCA-job ./opt_b97-3c_parallel
  N   3.87720905863681      2.35379010927783      0.06233110960478
  C   2.99725156390286      1.28811585176103      0.00426573605344
  N   1.70483113861986      1.68546720144710     -0.00521617321209
  C   0.76903215909153      0.77567380454232     -0.01029148320870
  C   0.76909635207177     -0.77534920531779     -0.00944036608107
  N   1.70475044093250     -1.68486873956906      0.00123743279244
  C   2.99744825716753     -1.28724970026398      0.00590556794927
  N   3.87773709022810     -2.35304445802745     -0.04098479881221
  H   3.45871157093431     -3.22630532502264      0.23008411083647
  H   4.79500995675929     -2.20570314639106      0.34224216498096
  C   3.55436795630609      0.00036620881026      0.00792130494722
  H   4.63946716388441      0.00040057556513      0.01432698711482
  C   -0.62781972201946     -0.74112470392649     -0.00652812393612
  C   -0.62744877808495      0.74138540371019     -0.02530752477405
  C   -1.70959785146315      1.61380788292961     -0.00211216610244
  N   -1.47611256935814      2.95137470017858     -0.02876953190872
  H   -2.24716341554607      3.55404919779464      0.19711695534238
  H   -0.54316083469264      3.27792566348525      0.15517293102019
  N   -2.99882581123929      1.25693420775859      0.01744622079186
  C   -3.48221564441066      0.00038593620615     -0.02867773661734
  N   -4.84051873520875      0.00175015237308     -0.08392171112849
  H   -5.31891914002709      0.86898087181632      0.07185327844089
  H   -5.32003088425532     -0.86918702908469      0.04597271645766
  N   -2.99895409049143     -1.25654336819682     -0.04381388725620
  C   -1.70978976727690     -1.61332773045414     -0.01555496454582
  N   -1.47752943611115     -2.95114545188624      0.04012225040264
  H   -0.54393044038159     -3.27858070864895     -0.13980456512390
  H   -2.24540879103391     -3.55437052429951     -0.19581435721210
  H   4.79870825134198      2.20623927493448     -0.31056409476291
  H   3.46159587462360      3.22703856669830     -0.21404481035277
