26
Coordinates from ORCA-job ./opt_b97-3c_parallel
  N   -4.77783451747821     -0.09732460523642     -0.04298317883373
  C   -3.42807212723590      0.03849201910431     -0.00818199810852
  N   -2.81536519006344     -1.14682156879727     -0.00073199126346
  C   -1.48378580509969     -1.34316242635537      0.01545169346716
  N   -1.10757280518430     -2.63782523680403      0.03898726805628
  H   -0.13376540532506     -2.87503958461786     -0.04637607022360
  H   -1.80919943485440     -3.34372830892539     -0.09049372156131
  C   -0.48815937002148     -0.36994639306357      0.02971113080229
  C   -0.56793404137514      1.11184567761984      0.01462984881537
  C   0.83191771827597      1.21591733394431      0.00471474767147
  N   1.75129650064916      2.14754101703862     -0.00176037073942
  C   3.03704696851581      1.75148337632473     -0.00516964224546
  N   3.64033976479768      0.56834306219372     -0.01356249694027
  C   3.15842872863979     -0.67882450841756     -0.02520940437256
  N   4.11916896168003     -1.64466328067047     -0.09794618118604
  H   5.06112250312335     -1.35814940002508      0.09540153529737
  H   3.85242000672386     -2.58402241998203      0.13211245012017
  N   1.89185843670902     -1.18200116252441     -0.00185756291191
  C   0.90970262314107     -0.32628376154080      0.01233531538149
  H   3.73721777950003      2.58059096510363      0.00254612609908
  C   -1.69709127959002      1.90440540016333      0.00179813061432
  C   -2.98165333889272      1.40646499349133     -0.00559703968847
  H   -3.78116864008455      2.13607162403148     -0.02552684491049
  H   -1.57291656522176      2.98063948723143     -0.00655044569361
  H   -5.38853558538575      0.68677871863819      0.08494667862315
  H   -5.15240940784336     -1.02386873622462      0.05330051053071
