27
Coordinates from ORCA-job ./opt_b97-3c_parallel
  N   -5.36993271064624     -1.01481392323264      0.02746063057360
  C   -4.32815839591275     -0.49862614835290      0.01943768958725
  C   -3.07879997927586      0.16715731434457      0.00988099004068
  C   -1.93598848590365     -0.61011479980650      0.00858166325909
  C   -0.65305252826005     -0.07713547384780     -0.00012066261454
  C   -0.25522594515182      1.34857036333334     -0.01081701130720
  C   -0.95818279562660      2.48772856043315     -0.01436379451340
  N   -2.34092751278344      2.60695513682048     -0.00724670090264
  C   -3.18713133174245      1.63281568708030      0.00267989294631
  H   -4.22454917453478      1.96088672701482      0.00676471162054
  H   -0.44211902979152      3.44093718671707     -0.02363909017422
  C   1.14782021203881      0.91108970031114     -0.01563026031939
  C   0.68640457131101     -0.48527195764966     -0.00433245375366
  C   1.46080198221459     -1.66239328121749     -0.00609031271499
  C   0.77421122782562     -2.90108649819001      0.00243686870649
  N   0.16968606934858     -3.89312423672075      0.01026917954592
  C   2.84703794907707     -1.66584323089467     -0.01437183652357
  C   3.76840320824893     -0.60822870236614     -0.01646723319561
  C   3.60728286696967      0.77172146309952     -0.02603929230860
  N   4.72379133904900      1.55821007585002     -0.07929463384176
  H   4.64947481773837      2.52761057076524      0.16953075885396
  H   5.62065027879684      1.14263260256347      0.09769207893215
  C   2.36016616576836      1.48981725273231     -0.02994385584161
  H   2.41442008499802      2.57238399074250     -0.05095665547538
  H   4.80195969145389     -0.93612097274644     -0.01623999650063
  H   3.30096359016536     -2.64779489333580     -0.01051085105764
  H   -2.05431895227497     -1.68669591804709      0.01487935677886
