24
Coordinates from ORCA-job ./opt_b97-3c_parallel
  N   -5.50239788641738     -0.09067856517257     -0.00038683678911
  C   -4.34154678170284     -0.06882153891394      0.00022790967482
  C   -2.91810083875990     -0.01397090374441      0.00089591972724
  C   -2.30168552950181     -1.24413670717473      0.00126702731702
  N   -0.96679832464227     -1.59203451192333      0.00140340601866
  C   -0.06520896349486     -0.68295154581955      0.00101236021372
  C   -0.00101746423393      0.80081676984801      0.00054111087575
  C   -1.07240089095232      1.71028798514127      0.00055204761328
  C   -2.37907653365722      1.33320098384025      0.00056004043438
  H   -3.12415602971600      2.11581893194960      0.00014191584542
  H   -0.85663738089045      2.77270971319222      0.00013633376608
  C   1.39503533609300      0.75313001955786      0.00022713438274
  C   1.40948811241914     -0.71829263018938      0.00037006443478
  C   2.38785439148840     -1.63922478593258     -0.00020965955760
  C   3.78594109854254     -1.31126849695026     -0.00137446204313
  C   4.36858156611455     -0.08258941415196     -0.00172518888542
  C   3.80285825905552      1.24135730227977     -0.00099812105727
  C   2.49934577254511      1.63377304628741     -0.00024981030607
  H   2.29668054652610      2.69889687757058      0.00010161490689
  H   4.53767697253724      2.03688840406228     -0.00120313502136
  H   5.45230588220558     -0.08941716605446     -0.00269449645645
  H   4.46173594080362     -2.15760285277909     -0.00215877792031
  H   2.11180920861757     -2.68604384761378     -0.00001301501043
  H   -2.95846236807941     -2.10406603150921      0.00139714473636
