33
Coordinates from ORCA-job ./opt_b97-3c_parallel
  N   -4.43170738337580     -3.44723497183999      0.00241493741363
  C   -3.62335216742656     -2.60756002464501      0.00218728747286
  C   -2.68864342244348     -1.55417142593396      0.00197929990089
  C   -1.32007498752175     -1.93078482672236      0.00267327335282
  C   -0.27829385217596     -1.08027170450344      0.00238512855198
  C   -0.14381794969296      0.39284803177689      0.00119022125359
  C   -1.16861542472012      1.36933350968478      0.00062893382013
  N   -0.82155801354739      2.66490286415116     -0.00003883513965
  H   0.13947828541496      2.95874919309585     -0.00021874500424
  H   -1.52014766837921      3.38879878121449     -0.00053064950677
  C   -2.55119502681328      1.04317510813261      0.00083656879514
  C   -3.40242661133351      2.16130841106907      0.00039489214568
  N   -4.08988430064359      3.10440750360615      0.00007852045332
  C   -3.22905268267307     -0.24367331083025      0.00111726899005
  N   -4.57422574375717     -0.15826670476106      0.00055885263881
  H   -5.13600638056703     -0.99239822087110      0.00089801467510
  H   -5.04708674357619      0.72776981540025      0.00002689280024
  C   1.25436582012758      0.32578972119905      0.00145634862316
  C   1.15436916941438     -1.17936366903343      0.00262903341450
  N   1.98676999094497     -2.15805318845475      0.00339164192231
  C   3.33905984830038     -1.90558217940339      0.00319537753084
  N   4.05033629990516     -3.05057118994421      0.00366390904443
  H   3.56729080052565     -3.92890427840137      0.00388245620914
  H   5.05207666057683     -3.01654229987071      0.00342418534725
  N   4.06056219680694     -0.80035711647970      0.00276137636441
  C   3.71863330561249      0.48980214343342      0.00197625697778
  N   4.79015680385182      1.31652009854009      0.00197852341917
  H   5.70244570470536      0.90140607718091      0.00244638667694
  H   4.70262643938448      2.31582934420767      0.00147294268138
  C   2.42081474940885      1.09118787197301      0.00107971032961
  C   2.35509618741272      2.49376792752774     -0.00008106883003
  N   2.31340974931300      3.65901703706233     -0.00115261005802
  H   -1.10821546725853     -2.99159777446073      0.00346477133355
