31
Coordinates from ORCA-job ./opt_b97-3c_parallel
  N   5.30531695103322      1.30676561321838      0.13658039768668
  C   4.26921732354310      0.77096890888181      0.07584620106301
  C   3.01451635329054      0.14755370080307      0.00766475871756
  C   1.90231428500311      1.02966907700695      0.00888238959197
  N   2.13211298830792      2.36368559346551      0.00891101320882
  H   3.06266834509071      2.71660017587560      0.15622481385425
  H   1.37736524591509      2.98309524353371      0.23505673437506
  C   0.57138126050593      0.59700539830861     -0.01454730370195
  C   0.00008042766068     -0.76323498475401      0.01089912742118
  C   0.58794848750967     -1.99319231954719     -0.01368521293272
  C   1.96200172431221     -2.21699117797932     -0.05407596055150
  C   3.02318746650336     -1.30154298205306     -0.05568109370931
  N   4.26288947795104     -1.85044933175002     -0.13141908445016
  H   5.09076820220364     -1.29025770972681     -0.03125919462928
  H   4.37153421961596     -2.84327790585037     -0.04774764333385
  H   2.26617885529693     -3.25519839387045     -0.09975065599311
  H   -0.05109995095757     -2.86718512795252     -0.00831929640424
  C   -1.30625199546277     -0.19866334892470      0.01190839941566
  C   -0.70964173420597      1.17805707021596     -0.02305071655099
  C   -1.37037596398202      2.38408513843148     -0.09445736392917
  C   -2.75751049090947      2.51106228669042     -0.11277808234757
  N   -3.74933306955668      1.62358875632135     -0.04500557342291
  C   -3.73818663182981      0.30465462374226      0.04373102472889
  N   -4.97276365392896     -0.25924215242113      0.17636742177366
  H   -5.10893756528950     -1.24283855205841      0.02542366016969
  H   -5.75141948858549      0.35092773616097      0.00363167541357
  C   -2.61018077341914     -0.60765551697325      0.04260461919470
  C   -2.87146527551806     -1.99817778790925      0.07258493304194
  N   -3.11989905759348     -3.13351262358710      0.09082005870429
  H   -3.12363949042157      3.53021167728359     -0.19655550713107
  H   -0.81304446419053      3.31119197002365     -0.16917422387520
