27
Coordinates from ORCA-job ./opt_b97-3c_parallel
  N   4.38774853396642      0.00141813080595     -0.09567739370699
  C   3.03120697624035      0.00056446570858     -0.03031101799064
  N   2.53800874921506      1.25092369105884      0.00284693340759
  C   1.25291474184990      1.60617946790048     -0.01500273659147
  N   1.03793623225464      2.95118990565381     -0.02989613836918
  H   0.14113440873299      3.29596458861991      0.26044458478076
  H   1.83383237465121      3.52207001576571      0.19689682284845
  C   0.16645215731326      0.73098157443375     -0.04789896478061
  C   0.16667698638165     -0.73132121197206      0.02393032976860
  C   -1.24517283537970     -0.75484221212229      0.02795096971058
  C   -1.24503921902541      0.75486776337997     -0.04647595008423
  C   -2.31629668175254      1.60343057766107     -0.11469392860371
  C   -3.66098780362802      1.19775481439480     -0.09662453145449
  N   -4.23352113681387      0.00106823275812     -0.00320172688057
  C   -3.66139034637300     -1.19572692780394      0.08749109381334
  C   -2.31664759074949     -1.60244889063666      0.10024028954326
  H   -2.15073605742643     -2.67247788336575      0.18643716894192
  H   -4.38280281493004     -2.00574457153967      0.16148623958005
  H   -4.38231438604536      2.00809251655069     -0.16756655015966
  H   -2.14921556392975      2.67311785450599     -0.20251228506603
  C   1.25378177617905     -1.60586145158787      0.01282439867414
  N   1.04186459864129     -2.95039101472413      0.07153986640606
  H   0.14120191986307     -3.30440754323328     -0.19469985045827
  H   1.83447481607146     -3.52556155772232     -0.15620256646874
  N   2.53862517911590     -1.24998204663762     -0.02167050329851
  H   4.87047319474051      0.87034042270834      0.03407068449799
  H   4.87182702093687     -0.86705662576041      0.03260365784037
