33
Coordinates from ORCA-job ./opt_b97-3c_parallel
  N   -4.14312264680246     -3.57001144309610      0.00008232474943
  C   -3.46670876783588     -2.62219409379895      0.00014834557719
  C   -2.70118637776459     -1.43655799930155      0.00021766309592
  C   -1.29867904599195     -1.61754683853939      0.00060642594717
  C   -0.38968990940064     -0.61432427157974      0.00080320497248
  C   -0.55203601326767      0.84485015581733      0.00071935809745
  C   -1.69145733556323      1.66645621576239      0.00025815022301
  N   -1.46633962094956      2.98824943698593      0.00024158347650
  H   -2.21833892257305      3.65587980746609     -0.00013136496086
  H   -0.51569858830932      3.32324701717125      0.00049299587417
  C   -3.00911931801064      1.15376488018764     -0.00018746554758
  C   -4.01677777747579      2.13424124709585     -0.00067394395392
  N   -4.83018745338515      2.96950008665805     -0.00117483916881
  C   -3.45804654000641     -0.22279962279115     -0.00012465977042
  N   -4.79549630895797     -0.36899478324379     -0.00047522474077
  H   -5.41082766951457      0.42538444330626     -0.00073964859159
  H   -5.21168355450618     -1.28487512039763     -0.00050683333262
  C   0.82337889643434      1.05094922107097      0.00108711948628
  N   1.61676127548123      2.10790760532980      0.00124932480233
  C   2.92850418478312      1.95763454750807      0.00162455250229
  C   3.77135681638620      0.81052344832330      0.00193775019646
  C   5.15206532607313      1.13074139201780      0.00238052587652
  N   6.29642495640547      1.33634606961729      0.00295163979141
  C   3.49842587029891     -0.58319025757927      0.00191822815394
  N   4.53158012641076     -1.44611586665986      0.00223197563745
  H   4.37933680823246     -2.43901725846182      0.00236535854068
  H   5.48158499891265     -1.11723906150267      0.00260774931570
  C   2.17698652278053     -1.17472209346845      0.00156329816694
  C   2.07793615088743     -2.58729964778660      0.00161660625503
  N   2.02719902600248     -3.74757430632468      0.00170314995415
  C   1.03408594680096     -0.43861895925199      0.00121251730831
  H   3.47870282508222      2.89123017567663      0.00173378864879
  H   -0.94817137515690     -2.64069331471105      0.00076481951697
