23
Coordinates from ORCA-job ./opt_b97-3c_parallel
  N   -1.50744649917958     -2.53223252414919     -0.00139089947848
  C   -1.74998916592075     -1.21526051919475     -0.00175349596492
  N   -3.03183751616065     -0.84562297896406     -0.00187353967914
  C   -3.46461342083480      0.42552741228271     -0.00214401011080
  C   -2.87297034193126      1.68520632559271     -0.00221431868166
  C   -1.50987361536238      2.03424006016338     -0.00212422808006
  C   -0.51814521334352      1.10072251842447     -0.00201153016063
  C   -0.61793866285082     -0.36450934696420     -0.00197264165445
  C   0.76387143569607     -0.50654984397361     -0.00171033333334
  N   1.61272381117790     -1.52046457980961     -0.00136326861095
  C   2.92374878626023     -1.30350878432931     -0.00110721763286
  N   3.68437433945542     -0.18426589847261     -0.00121467395616
  C   3.33916737585708      1.08129584458068     -0.00148493190224
  C   2.05857895910910      1.72118668407799     -0.00171454044374
  C   0.91771929054807      1.00401503732138     -0.00180611310216
  H   2.04474055017453      2.80557508719940     -0.00182746824595
  H   4.18729727008208      1.76343538435002     -0.00152389925333
  H   3.51696749866080     -2.21055853075657     -0.00077543849741
  H   -1.25209996646634      3.08676150571089     -0.00213096337975
  H   -3.58029338659781      2.50432862456120     -0.00236816509903
  H   -4.55097496206015      0.46455237092381     -0.00229197479766
  H   -2.28403620216224     -3.17028525110966     -0.00113636635920
  H   -0.55985948585104     -2.87548643296506     -0.00119865447606
