23
Coordinates from ORCA-job ./opt_b97-3c_parallel
  N   -4.89404465101129     -1.57984220571302     -0.40670060595690
  C   -3.93214665444952     -0.94358336492972     -0.26734377384713
  C   -2.78605993662513     -0.12671595616929     -0.10350206053174
  C   -1.55449874468508     -0.73249419915532     -0.12399916496255
  C   -0.35180179475874     -0.02162709691713     -0.01501676058943
  C   -0.16632441121134      1.43911529147946      0.06738701628905
  C   -1.02720074061897      2.46715898036475      0.09870233955979
  N   -2.39806352780956      2.36292544920124      0.25846085787775
  C   -3.10117347822101      1.28992236387329      0.18148548639081
  H   -4.15906222168255      1.43773397971677      0.38702735175074
  H   -0.65658434306495      3.48339303362839      0.06621710671765
  C   1.28838361142589      1.20668071843420      0.01848379867730
  N   2.32528978125552      1.95736581475377     -0.00991679317110
  C   3.56391427376782      1.35384372980327     -0.21155735346681
  N   3.98516292350292      0.13495232722440     -0.10130637420313
  C   3.32597189018261     -1.02559334830488      0.13476295351858
  C   1.97115844568217     -1.29082155474327      0.05775239601207
  C   1.51107922173901     -2.62696054631599      0.16834983937585
  N   1.08271965235245     -3.70243907702404      0.25427402086969
  C   1.02100897375129     -0.25367640078423     -0.05098005046921
  H   3.97990352740509     -1.86269445164243      0.34540327622286
  H   4.32059217710747      2.07487973059483     -0.50128435668249
  H   -1.51441807403394     -1.80761615937508     -0.24671438948155
