36
Coordinates from ORCA-job ./opt_b97-3c_parallel
  N   -6.11965481442041      0.00377115644969      0.20656452390728
  C   -4.95957739913546      0.06433453431899      0.12208723557252
  C   -3.55378934455671      0.15565160000875      0.03320826769291
  C   -3.06190157084428      1.48768096615244      0.07749659536140
  C   -1.71699518215997      1.91228736566712      0.01682011691863
  C   -0.62616730473639      1.11089171462220     -0.05575002840676
  C   -0.48250976865317     -0.38713075387368     -0.05212049128088
  C   -1.48749974074418     -1.35314436020365     -0.09679066305273
  C   -1.10638464361483     -2.70815160464585     -0.16748100864464
  N   -0.81216612254242     -3.83352645714904     -0.22569553830846
  C   -2.88992424116802     -1.10696486521753     -0.08065304622368
  N   -3.69728805639144     -2.20002648529621     -0.20824863372258
  H   -3.30765907753351     -3.11708142425452     -0.08171020932986
  H   -4.68055233421254     -2.11638652713294     -0.02117213588933
  C   0.91454043100584     -0.24270453150128     -0.04492280853455
  C   0.78292644026725      1.23618986794703     -0.06897502668688
  C   1.71278816788673      2.24894969414977     -0.12589500580642
  N   3.04398355816675      2.11589573124543     -0.02348876563399
  C   3.73767517201820      0.99422385978725      0.09793604392802
  N   5.05711787232240      1.23520916373655      0.28421389683895
  H   5.35535667992040      2.19171193837188      0.23766122415826
  H   5.74411756585676      0.50413880752180      0.31336469399263
  C   3.37795802937231     -0.41126171281373      0.04561234316123
  C   4.45459100354151     -1.31013654738846      0.09041298644072
  N   5.34259717276727     -2.06730227167089      0.12589373570515
  C   2.08761762051767     -1.01492233183301      0.00208839456476
  N   2.02362643592814     -2.35700674041808      0.02826823480534
  H   1.15298957155818     -2.85085579130900     -0.04959586698122
  H   2.86373672746511     -2.90889669704542      0.04282662976761
  N   1.30204180237099      3.55921126596290     -0.24734482857261
  H   2.05493140794624      4.18664475307021     -0.47858573093282
  H   0.46406126835660      3.71588102391425     -0.78003476945562
  H   -1.55951362766432      2.98366415186217      0.06338217583838
  N   -3.98175335710991      2.49825439413827      0.14277157329513
  H   -3.66309053266711      3.40344048085534      0.43468152747178
  H   -4.93829588201374      2.28841673217133      0.37083733484226
