27
Coordinates from ORCA-job ./opt_b97-3c_parallel
  N   -4.93398885684946     -2.14727019132077     -0.03499160090350
  C   -3.99562804339800     -1.45407310392920     -0.02422499597052
  C   -2.90244586070406     -0.56923620158020     -0.01053894323441
  C   -1.63992094020289     -1.12959900524856      0.00220774744912
  C   -0.45655796335015     -0.41443119436625      0.01250810350802
  C   -0.26349649791473      1.05598199389027      0.00446886559334
  C   -1.14786697968208      2.07277583636134     -0.00706123932723
  N   -2.50972642512110      1.98757840679698     -0.00353924365456
  C   -3.23801676055321      0.89941220637206     -0.00153505788906
  N   -4.56381988924041      1.12881659261095      0.01131759363131
  H   -5.24604279212675      0.39085535908741      0.01194022259797
  H   -4.86296535407192      2.08824215695608      0.01707342710174
  H   -0.77452685585369      3.09054324238026     -0.01654151411183
  C   1.16516548542347      0.84529121705970      0.00676225552974
  N   2.21762686589358      1.58411953463743     -0.00553924995957
  C   3.44342077966795      0.93476760102202     -0.00947265647018
  N   4.45729635034875      1.82208148393934     -0.04039157833488
  H   4.25200981504868      2.80291810451649     -0.02483867668050
  H   5.40468284814390      1.49565754683233     -0.01608063872352
  N   3.79871653344631     -0.33289933775665      0.00568187034269
  C   3.05605269689852     -1.45934336483371      0.02887823522637
  N   3.80815135897399     -2.58515941634794      0.08262921416970
  H   3.35011638577559     -3.46858807011137     -0.04131716928999
  H   4.79633501673663     -2.51271553352685     -0.06708233520064
  N   1.73399984464208     -1.68804241588965      0.02496542311877
  C   0.92612609860158     -0.65125114473166      0.01740515301980
  H   -1.58251761303258     -2.21143483861986      0.00193178696182
