28
Coordinates from ORCA-job ./opt_b97-3c_parallel
  N   1.79399856847662      3.21253471261383     -0.18518767307134
  C   1.72893531395569      2.05274247516390     -0.09063669479345
  C   1.66518587539904      0.65036953779172      0.00653551605055
  C   0.40113754558756      0.01083902464458      0.03553592531899
  C   0.11902053732184     -1.46661207494857      0.00981885522189
  N   0.79365402977527     -2.55301278104751      0.01133400203726
  C   2.17142457806380     -2.49969030371010      0.05324635860696
  C   3.04860169990978     -1.46073689314506      0.06718442034939
  C   2.88596511838628     -0.03432145379071      0.03377687214605
  N   4.06362555904192      0.67641014383744      0.08878256333435
  H   4.88545610474950      0.21991072228762     -0.26535785123490
  H   4.02891840854327      1.66064144110722     -0.11950060302465
  H   4.08556653309288     -1.77488019774700      0.12037497862658
  H   2.62090502399064     -3.48530755563912      0.08197369801545
  C   -1.30906284244012     -1.17674867982826     -0.00842501613022
  C   -0.97348619804487      0.25383147795268      0.02648985704655
  C   -1.90053985487228      1.35322531385674      0.05921748789098
  N   -1.39856338400025      2.60584601261230      0.17195570846517
  H   -2.01696042690827      3.39331395932077      0.10064262670794
  H   -0.42169900010094      2.79951380380646      0.04142771818925
  C   -3.27388801892288      1.17295037971584      0.02260272376932
  C   -4.06251473124048     -0.00153135258489     -0.03518022475798
  C   -3.74757285265046     -1.33465241795570     -0.06535413441469
  C   -2.44797579957924     -1.90143491659439     -0.04707317864938
  H   -2.35351035754838     -2.98010415288781     -0.06925328595611
  H   -4.57843804333394     -2.02653054668462     -0.10756231399747
  H   -5.12611633996429      0.20989656358600     -0.05667481684714
  H   -3.84963834088762      2.09193842376666      0.05020570700061
