39
Coordinates from ORCA-job ./opt_b97-3c_parallel
  N   -6.31687234492908      0.00304537523718      0.00076881708715
  C   -5.15268987496914      0.00252318951685      0.00057847094108
  C   -3.74045825550751      0.00191352529038      0.00036374137312
  C   -3.16843762312373     -1.28178070796192     -0.22752109218605
  N   -4.03202418287357     -2.29584610347075     -0.47279778216510
  H   -3.70576246702863     -3.23936616419549     -0.57425613622673
  H   -5.02516129373809     -2.15326235692241     -0.44544368269057
  C   -1.78003210556769     -1.62588974964511     -0.22867742345202
  C   -1.49458561070081     -2.97825100875889     -0.50683397273655
  N   -1.29663630132121     -4.09987049517419     -0.74777933518075
  C   -0.71922383453031     -0.75072405094007     -0.05272218629795
  C   -0.71852137007662      0.75184038299060      0.05325268078852
  C   -1.77853643666161      1.62799287579672      0.22904798861626
  C   -1.49188294733903      2.98013024903419      0.50705409985463
  N   -1.29296868087749      4.10159216315383      0.74793813530436
  C   -3.16726606225999      1.28514163831124      0.22795621580652
  N   -4.02992951572344      2.30007193155469      0.47279207795571
  H   -5.02319851324018      2.15825498923950      0.44643377886363
  H   -3.70275996149954      3.24315178128484      0.57536222767485
  C   0.68606791430387      0.75035005810061      0.01421069761982
  C   0.68535582209316     -0.75055005786343     -0.01366857346567
  C   1.71885661067937     -1.66334598516494      0.20413612392394
  N   1.45562231437016     -2.97013778335364      0.41098229557904
  H   2.21247271320140     -3.63118201043345      0.45071527663975
  H   0.54683971616924     -3.35535944365396      0.23124358527673
  C   3.08506683527447     -1.25812915491205      0.31458065614029
  C   3.98103799722828     -2.27875107301799      0.67711378870609
  N   4.72078273218296     -3.13357846648438      0.96474684275872
  C   3.68799556744997     -0.00157463575157      0.00000639172738
  N   5.03659667179854     -0.00226635036555     -0.00022266965295
  H   5.55552476657158     -0.84722131948912      0.16085213597419
  H   5.55634210742686      0.84217030659920     -0.16138173945041
  C   3.08623839038053      1.25558407093586     -0.31434856247253
  C   3.98313166982759      2.27533219387410     -0.67705933992133
  N   4.72365650037832      3.12942975334416     -0.96485027690617
  C   1.72043877432402      1.66215170290214     -0.20360319211206
  N   1.45849817144240      2.96923680811796     -0.41018718917910
  H   0.55009969095504      3.35535287964167     -0.23043965193987
  H   2.21599808290992      3.62952113933320     -0.45010545217595
