27
Coordinates from ORCA-job ./opt_b97-3c_parallel
  N   4.42904353084672      2.50696856430494      0.00195535102081
  C   3.58631135425022      1.70098965543284      0.00152859720487
  C   2.62579573337822      0.67308207799584      0.00094839103618
  C   1.24167055515291      1.08352386941118      0.00099121269111
  C   0.18808784433577      0.25677527953494      0.00054381652600
  C   0.05296607370347     -1.20887107120704     -0.00006532661191
  C   1.07782735159937     -2.16468932313928     -0.00041866186340
  C   2.41179087090238     -1.89944812271589     -0.00023865987936
  C   3.13231258216735     -0.63521077770408      0.00039997423266
  N   4.47529596687671     -0.79918992666243      0.00054657539238
  H   5.09555575254519     -0.00736833629485      0.00074934689921
  H   4.88357758824127     -1.71341131972063     -0.00025040248239
  H   3.06180236236937     -2.76589643716067     -0.00055600573871
  H   0.79362268503065     -3.21144729223933     -0.00089119162335
  C   -1.34507638723379     -1.15281102477477     -0.00007052846947
  C   -1.27658224851007      0.33731264767759      0.00046891122145
  N   -2.11823504806051      1.30060981499561      0.00071290814634
  C   -3.48691855730875      1.01226328993531      0.00053529136223
  N   -4.20660045214963      2.15631502571766     -0.00026418538069
  H   -3.73458664617261      3.03987543647827      0.00344402544321
  H   -5.20767876716920      2.10654955183068      0.00278404777337
  N   -4.18012816397887     -0.10352680181362      0.00064891204969
  C   -3.75748686482086     -1.38475972351950      0.00029275571681
  C   -2.49555346212895     -1.93719113658825     -0.00011872603954
  H   -2.42182911818869     -3.01832504159968     -0.00034369991533
  H   -4.58410458399916     -2.08857128793727      0.00040740065632
  H   1.06259519742156      2.15067527726248      0.00142393273150
