29
Coordinates from ORCA-job ./opt_b97-3c_parallel
  N   -0.93376190359238     -3.97141587477193      0.03645353387011
  C   -1.28052246729485     -2.86214881062732      0.01976921056889
  C   -1.64713306998808     -1.49307768236579      0.00166575287045
  C   -0.61063234248365     -0.54496525168494     -0.00475226168940
  C   -0.71412955213391      0.93992020595526     -0.02951032890402
  C   -1.75975441763984      1.78503933645025     -0.05105456744187
  C   -3.13888889527154      1.38326791091341     -0.03549255888937
  N   -4.04420602615010      2.42782418858672     -0.10882022180279
  H   -4.99463370795111      2.21438431356587      0.14140434892715
  H   -3.73699214918443      3.31265266286699      0.25702171491198
  C   -3.63012734164858      0.08718846423847     -0.01384653733007
  C   -2.99710888562991     -1.16642979791191     -0.00653279097309
  H   -3.67465831636033     -2.00960237484072      0.00592795160105
  H   -4.71335836809351      0.02205658185539     -0.00705432219797
  H   -1.56037253743359      2.85093792296184     -0.09055624176267
  C   0.73840902688190      1.01043916716981     -0.03215772289672
  C   0.78292920825256     -0.46528675900923     -0.00824571764900
  C   1.90245948358318     -1.30886038643736     -0.01189066522595
  C   3.20149328507231     -0.90034216423615     -0.02390293105080
  C   3.75735912855627      0.44042908743561     -0.02810357735906
  N   5.13328261247056      0.44717385519383     -0.08357287662858
  H   5.61676505968498     -0.36985800613044      0.24481249565129
  H   5.60281315765046      1.31087239008699      0.12472722286347
  C   3.11076109121821      1.66237078933993     -0.03173086894898
  C   1.71976727169247      1.93841254437011     -0.04510786474886
  H   1.44019523333965      2.98628149019071     -0.05690077943909
  H   3.75732784327711      2.53252038347801     -0.03341335344495
  H   3.94455855576444     -1.68849091384591     -0.04841316605746
  H   1.72333591931145     -2.37780543909739     -0.00646548422378
