27
Coordinates from ORCA-job ./opt_b97-3c_parallel
  N   -5.10627807556733     -0.45802086187555      0.04336173365332
  C   -3.94393508703070     -0.38165950245074      0.03887437648181
  C   -2.53596674914498     -0.31809911046354      0.03032765996091
  C   -1.91136055188163     -1.58432812088149     -0.01685659614455
  N   -0.57730800797606     -1.93010321580932     -0.03546571318539
  C   0.34220868985559     -1.04458207814836      0.04373588364839
  C   0.40956414127327      0.42669487953024      0.12806132202189
  C   -0.62675947708495      1.37080108294946      0.09042665026808
  C   -0.28815895536210      2.73709324679652      0.09313849286363
  N   -0.03098951687521      3.87236966809308      0.09363669872485
  C   -1.98920386298920      1.02342277258244      0.04789718492409
  N   -2.89041177001736      2.02743504680598      0.01736663381255
  H   -2.58567633126355      2.98364413242480      0.06035995965761
  H   -3.87835329757103      1.85220279132347      0.00486091593901
  C   1.80494007956082      0.36157184601737      0.11839915658157
  C   1.81605450745100     -1.10827908178496      0.03168347638925
  C   2.82826235059587     -1.97703147922787     -0.08482017008814
  N   4.15014137014421     -1.62573330862785      0.17391640536550
  C   4.60826710208030     -0.42936381654063      0.15907185291055
  N   4.13308358851948      0.79913078132447     -0.33269499586725
  C   2.90836199666801      1.19184525454896     -0.24767752921008
  H   2.69591951009991      2.20303054952704     -0.58981587977548
  H   5.61773702774641     -0.31287858761396      0.54589936580815
  H   2.65245565631205     -3.03252677515115     -0.24176388223702
  N   -2.67244799331642     -2.69051428318001     -0.05468575493308
  H   -3.67660536078772     -2.66488252866591     -0.04898789780940
  H   -2.19829769803852     -3.57465866790238     -0.08041293496075
