29
Coordinates from ORCA-job ./opt_b97-3c_parallel
  N   -5.30475515128581     -2.15471478046578     -0.01688770541377
  C   -4.39789730009039     -1.42514840915689     -0.01424974350194
  C   -3.27308400995539     -0.56652228279976     -0.01102072195548
  C   -1.97699106367878     -1.22315146229233     -0.01331181829921
  C   -0.82178056314676     -0.54709566073440     -0.01273882829676
  C   -0.47802604619594      0.87032832338607     -0.01192046852798
  C   -1.31938229267742      2.02329218602364     -0.00641149363333
  N   -0.66247564076402      3.20624254451534     -0.02566196555551
  H   0.34095323552838      3.20928590244833      0.05707569084831
  H   -1.15297192230548      4.07407758987965      0.08608983698209
  C   -2.69794803937341      1.93722800174905      0.00329536945622
  C   -3.52720746473955      0.78932618360941     -0.00258159969540
  H   -4.58251474540601      1.03378726563060      0.00104493595932
  H   -3.23250309877832      2.88008676407837      0.00842101401700
  C   0.88903225846447      0.61794921844404      0.00320181896203
  N   2.00114239923722      1.36537749168873      0.01225636694567
  C   3.18543666880805      0.78385427572780      0.03120642197706
  N   4.25385968877554      1.63253755392956      0.10422652424367
  H   5.14954853381440      1.25285788407804     -0.14024207037899
  H   4.08045941455064      2.59674473267488     -0.11408574094882
  N   3.60105963170566     -0.52182187035372      0.02464821635720
  C   2.91668471325599     -1.63390484701003      0.00135718376539
  N   3.66165826728265     -2.76698510297576     -0.04263560789977
  H   4.65517104072987     -2.67530307274832      0.07481774484950
  H   3.24717111831165     -3.66703798923247      0.10824171787837
  C   1.47721449411595     -1.86623989773153     -0.00808712272087
  C   0.63220146628842     -0.83215876657015     -0.00419957276337
  H   1.11677759547084     -2.88750216866001     -0.02786591153679
  H   -1.97010796104242     -2.30459219773234     -0.01144334181380
