30
Coordinates from ORCA-job ./opt_b97-3c_parallel
  N   -4.39096314429676     -2.76002366806678      0.05188752137761
  C   -3.55566882958010     -1.94604594448499      0.01761546667970
  C   -2.58736584532136     -0.92632801923576     -0.01776587681168
  C   -1.23080011002556     -1.35338610948697     -0.01604896978790
  C   -0.15486365755292     -0.53562722219253     -0.02929222204774
  C   -0.04336104326762      0.92372073948259     -0.04749415992654
  C   -1.03426539583525      1.92284226035555     -0.05575591495065
  N   -0.58288437140987      3.19893884649856     -0.10021577563897
  H   -1.20338047857351      3.97281661245923      0.04746388200476
  H   0.40723712817836      3.35985260905081     -0.00490251023736
  C   -2.39676837567310      1.64856639113072     -0.04452846850640
  C   -3.08814583157941      0.41326164368118     -0.03862442482062
  N   -4.44466911338893      0.53637388359654     -0.08861398739346
  H   -4.86386645887193      1.42597565761642      0.10481394545003
  H   -5.02449379487589     -0.27256691792573      0.05608747805141
  H   -3.04172086658228      2.51978633705168     -0.08183899109423
  C   1.34694701994027      0.87504517103203     -0.02168715966864
  N   2.32218033177700      1.77534141496355     -0.00099073141956
  C   3.58687916994989      1.37712466875666      0.02971198816697
  C   4.18609484482132      0.10227806242570      0.04024422871256
  C   3.66505173776129     -1.18718911718781      0.04160758337982
  N   4.54219390530336     -2.24732309909802      0.11762283127718
  H   4.21673987627171     -3.13812071953695     -0.21431758163594
  H   5.50477070570640     -2.06419839122838     -0.10619171421412
  C   2.27519331623392     -1.54715712812517      0.02766139176386
  C   1.29188996714547     -0.63273333805153     -0.00744269886531
  H   2.02981883693105     -2.60374679445373      0.05260485195160
  H   5.27044101283836      0.14924363737845      0.05653795651069
  H   4.29931502426700      2.19647614644392      0.04000730340232
  H   -1.07282484249094     -2.42425745644927      0.00869741939058
