28
Coordinates from ORCA-job ./opt_b97-3c_parallel
  N   -3.15198724915808     -3.95703748824230      0.00381390794575
  C   -2.63801964802049     -2.91570330884468      0.00228877211287
  C   -1.99891940932515     -1.64793484949404      0.00102725505290
  C   -0.57689838726643     -1.65344595037595      0.00028327351247
  C   0.17039478802423     -0.52544872187257     -0.00064362932420
  C   -0.14985032694129      0.91581324413036     -0.00097979851796
  C   -1.39015178559724      1.56989603267608     -0.00127821966684
  N   -1.42170092613284      2.90959697986002     -0.00206578212823
  H   -0.57528839208590      3.44519274034162     -0.00407224299579
  H   -2.29510111720972      3.41081018107247     -0.00293862647851
  C   -2.62564994024223      0.85037410714534     -0.00046803897503
  C   -3.78511318567664      1.65882641625873     -0.00086602097367
  N   -4.68625571521447      2.39503290537270     -0.00118071269579
  C   -2.84065546511085     -0.53978525091059      0.00062838891011
  H   -3.89203687314689     -0.79624522313495      0.00119012486213
  C   1.21344216468728      1.25933341524001     -0.00143727976587
  C   1.56932285482319     -0.18708186487508     -0.00118921869414
  C   2.78531389476015     -0.79727582622021     -0.00161706249411
  C   2.84598486092727     -2.21572733179124     -0.00141606203405
  N   2.90025883844311     -3.37477548414134     -0.00114147446691
  C   4.03813883067573     -0.07870000867541     -0.00240763701086
  N   4.29306345379928      1.19959139414044     -0.00224420887115
  C   3.45633988125849      2.25781219919329     -0.00148164477227
  C   2.07274019335189      2.34475092394856     -0.00129544114250
  H   1.67013847699913      3.35267846952158     -0.00084312633769
  H   3.98509970239694      3.20459118687587     -0.00110080242628
  H   4.91763583455474     -0.71547950936729     -0.00319891028851
  H   -0.07870468617324     -2.61339432133151      0.00053948186410
