29
Coordinates from ORCA-job ./opt_b97-3c_parallel
  N   6.18691568904634      1.32745631768552     -0.00094477143525
  C   5.04907199481991      1.09948016079342     -0.00085898758656
  C   3.65037497741332      0.81828090661360     -0.00076089500989
  C   2.83075571454021      1.94841048849545     -0.00138340746817
  C   1.42756220603874      2.03240342773862     -0.00149122342389
  C   0.58901168780417      0.96242936542255     -0.00097585920562
  C   0.87109418626169     -0.50618683743450     -0.00020144754188
  C   -0.50588010893709     -0.78052462355009     -0.00012293706000
  C   -0.81312270236515      0.66430140627675     -0.00089146422088
  C   -1.99911619904442      1.32890816837102     -0.00130310907280
  C   -3.28084566038571      0.73915043656677     -0.00106163774106
  C   -4.37692980319961      1.62637674718774     -0.00160490600616
  N   -5.31980131404014      2.31026487102523     -0.00199875426275
  C   -3.61117517312158     -0.65707293378933     -0.00033966757096
  N   -4.92439419450877     -0.95847364701233     -0.00021122858368
  H   -5.62880627416102     -0.24002816047039     -0.00068894522868
  H   -5.23219135978313     -1.91259985137043      0.00017347554832
  C   -2.74189135009030     -1.78800002306480      0.00028963510626
  C   -1.36932396437953     -1.86279336650996      0.00039381364518
  H   -0.93727311476532     -2.85615788975862      0.00093089976516
  H   -3.25923069308291     -2.73927458471271      0.00077093463962
  H   -1.98159539532611      2.41191598234679     -0.00187431576176
  C   2.09002193799327     -1.17579245499199      0.00020132063147
  C   2.03978724853149     -2.59764947659055      0.00090372156748
  N   1.94608199225579     -3.75413280014749      0.00147330101667
  C   3.34150849348897     -0.56240737144312     -0.00005689211560
  H   4.19311859604750     -1.22638090022158      0.00032382654542
  H   0.99894115619506      3.02742575086950     -0.00202865686021
  H   3.35716276695439      2.89274679157493     -0.00185365660975
