28
Coordinates from ORCA-job ./opt_b97-3c_parallel
  N   -5.92893449485705     -1.58690965566400     -0.00076525302343
  C   -4.81635660360256     -1.25827697515633     -0.00032547988779
  C   -3.44208751595996     -0.87313179187303     -0.00025858356629
  C   -2.53478526656931     -1.96834440570735     -0.00041920934892
  C   -1.15530094225869     -1.95969159828922     -0.00053444845882
  C   -0.35837393188003     -0.82849733525982     -0.00050306392098
  C   -0.75961777392193      0.61095563185667     -0.00020057268997
  C   0.62461991812456      0.98769060433442     -0.00020340837893
  C   0.99222407778464     -0.43861879693374     -0.00052110876825
  C   2.26710133847659     -1.01580196852384     -0.00105691773660
  N   2.39940773913641     -2.34924564339667     -0.00159419243150
  H   3.30888410746865     -2.78129823078224     -0.00225516053544
  H   1.59723967411687     -2.94892513032980     -0.00214840590382
  C   3.43935484407360     -0.19907411055792     -0.00092578680227
  C   4.66415386285982     -0.90259586969758     -0.00143831607236
  N   5.63109899630285     -1.55032411514680     -0.00190365443394
  C   3.54527300668118      1.21696994965194     -0.00025953346543
  N   2.70583935692268      2.23284649077544      0.00004767677374
  C   1.36101268064811      2.13519885906885     -0.00006265300870
  H   0.84014454352808      3.08593871133704      0.00002838014880
  H   4.58296640897004      1.54099999592674     -0.00001791649506
  C   -1.99203538405569      1.20114228851700     -0.00002533033357
  C   -2.05357011989707      2.62259350789055      0.00011840691016
  N   -2.09333309113710      3.78168655940497     -0.00032856974306
  C   -3.22607589089492      0.49626555697418     -0.00006495207684
  H   -4.11179357436887      1.11426299042557      0.00005207860749
  H   -0.68018502114578     -2.93452127289175     -0.00061872561716
  H   -3.00557272284515     -2.94097457565328     -0.00047720094101
