32
Coordinates from ORCA-job ./opt_b97-3c_parallel
  N   -6.15123852098372     -1.22661046300147     -0.00002820648624
  C   -5.01563927364757     -0.97456837106065      0.01098321372814
  C   -3.64920371760987     -0.59926663965448      0.02004319535550
  C   -2.76077248906997     -1.70464599292017     -0.04138737012165
  N   -1.43838850347922     -1.78994462549409     -0.06483762869155
  C   -0.69557823117052     -0.70243081354843     -0.04936613867312
  C   -0.97300774305578      0.79374232976526     -0.00685889192742
  C   -2.15451526266003      1.44880953801821      0.07755071655097
  C   -3.42038703358074      0.80422376041028      0.09185553809536
  N   -4.50226754522037      1.62575000805706      0.22470716883992
  H   -4.39161728181078      2.60429902012911      0.03634589867195
  H   -5.42730775137093      1.25569044496813      0.08735687278718
  H   -2.16587598638450      2.53031700213221      0.16821170421469
  C   0.43457323005231      1.01055859677253     -0.01696205013611
  C   0.67029416927255     -0.43826065058749     -0.05182654456252
  C   1.84180714923650     -1.20041990728926     -0.04310063260387
  N   1.70706431527375     -2.53723458448456     -0.07656486392686
  H   2.50328654624496     -3.14920693507546     -0.04832228625361
  H   0.78178706857555     -2.93426180226875     -0.08337555085440
  C   3.12159752344005     -0.59923372018410     -0.00142791715736
  C   4.21042131947847     -1.48357420445523      0.01513199536249
  N   5.10272496472758     -2.23556251321733      0.02880204708363
  C   3.42787720456765      0.81981726771883      0.05243175000908
  N   4.74765535300491      1.10577434404481      0.13981866280032
  H   5.45630530504855      0.39725821598044      0.19336631818784
  H   5.00700876889626      2.07342955576041      0.18463343489865
  N   2.68540885130063      1.91852195431110      0.01211640877218
  C   1.34946280180422      2.04534019137047     -0.02839864305049
  N   0.92404637593087      3.34927337706644     -0.03557682913909
  H   0.02402546926788      3.53717947686160     -0.43992201461389
  H   1.64114153517197      4.01643442927720     -0.26573095003539
  H   -3.26413274515073     -2.66374502760261     -0.07672641722433
