23
Coordinates from ORCA-job ./opt_b97-3c_parallel
  N   -3.96288992414291     -1.54332172764688     -0.03725308424425
  C   -2.93988795710448     -0.64014483398323     -0.03647072860885
  N   -3.31429144221100      0.61781453643757     -0.05062282546493
  C   -2.56913976727050      1.74366510079896     -0.08985138643223
  C   -1.21151849862883      1.97034707741540     -0.11384272919727
  C   -0.25297681110664      0.95788819817185     -0.11401406551803
  C   -0.48821564338001     -0.50239544957690     -0.07065679722001
  C   0.96335488568206     -0.71551811461197     -0.05691252567282
  C   1.13379805867859      0.75080598344776     -0.11041200316047
  C   2.31837512546355      1.43729218814854      0.22510163182921
  N   3.51257387811318      0.92470180098417      0.28826983996563
  C   3.84000497826368     -0.36478635759476     -0.11359094344686
  N   3.23421479105325     -1.50415545442945     -0.12595760344073
  C   1.87506612417724     -1.69200729488596      0.06834352086627
  H   1.57836394272634     -2.72330996336203      0.21832531683063
  H   4.87892334082020     -0.41024280531364     -0.43283957378451
  H   2.23731828323994      2.47992059265697      0.53159566405699
  C   -1.61424034604567     -1.22901581274517     -0.04687881868501
  H   -1.54424258366783     -2.31108978818027     -0.03066221368715
  H   -0.88871713412373      3.00407979741200     -0.14243713661112
  H   -3.18911525933192      2.63461563411206     -0.09642301223416
  H   -4.88273824101130     -1.17087934500685      0.12321824666263
  H   -3.80033568799324     -2.49696696614822      0.22792951849695
