31
Coordinates from ORCA-job ./opt_b97-3c_parallel
  N   5.71656970781525      1.66074205537244      0.10885279845971
  C   4.81228933189541      0.92749269050385      0.04926070986840
  C   3.67090812520175      0.10383468242194     -0.01314486069202
  C   2.44749483479252      0.77601785161438      0.03834676133560
  N   2.39801965481698      2.13293631717561      0.08734131366163
  H   1.55997345854632      2.55993609092861      0.43617212461646
  H   3.25064565213521      2.64127384690000      0.26031651556860
  C   1.19712930379833      0.09546200573807      0.00535868619241
  C   0.92381140021307     -1.33869017537092      0.00226417794369
  C   1.67890081084806     -2.44477768659550     -0.05284383025402
  C   3.11422851487833     -2.40534715375583     -0.11957091512494
  C   3.92760831226963     -1.32300166844516     -0.11095756217485
  H   4.98618807254392     -1.54262515333726     -0.16786924041408
  H   3.61068421678117     -3.36455325837726     -0.18832410446865
  H   1.19001806073300     -3.41004824777131     -0.06039725079645
  C   -0.51012644794098     -0.98688556128821      0.02363623732842
  N   -1.57486903957654     -1.69354528758837      0.05586664838323
  C   -2.82769713665902     -1.11101629401858      0.08034607498290
  N   -3.77478920291095     -2.06530685000774      0.16077269838124
  H   -4.75692659232184     -1.85774805607554      0.17980812554186
  H   -3.46698869564934     -3.01975915717589      0.16805956064027
  C   -3.20499833758011      0.24373587449868      0.02920019603998
  C   -4.59894298350459      0.44476704480622      0.03875758501962
  N   -5.75700598904358      0.57678513579989      0.03716538624903
  C   -2.39969925568585      1.45364582565838     -0.04873546861071
  N   -3.11472555478982      2.62814074931389     -0.05741185763461
  H   -2.62454014024365      3.45323798703671     -0.35202577728629
  H   -4.07954703133968      2.60411323996393     -0.34043827484343
  C   -1.02120456766532      1.54112042442356     -0.05870823815078
  C   -0.16521543148231      0.44566853155912      0.00368939473034
  H   -0.60457004567537      2.53824781209224     -0.14254845579257
