34
Coordinates from ORCA-job ./opt_b97-3c_parallel
  N   5.99371438450940      0.59765845804479      0.09271863088685
  C   4.84152194546289      0.43166559934061      0.03490326726640
  C   3.44770702967879      0.23449982889487     -0.02110001118618
  C   3.04854336143141     -1.14772134865358     -0.02811562767957
  N   1.82082546319302     -1.69117047840858     -0.03473348865505
  C   0.76527674607848     -0.91871495544855     -0.05773908850282
  C   0.55410269562872      0.60516093497833     -0.07911633240229
  N   1.35121346682659      1.63594296019451     -0.07045844859191
  C   2.68792794448197      1.44930783460170     -0.05021031382948
  N   3.37324123124828      2.62331966819838     -0.08923393391372
  H   2.83375350268853      3.45448482467979      0.06630506071948
  H   4.35810136821848      2.66003487673281      0.10202605069765
  C   -0.82761858278324      0.38973608352661     -0.08466718376090
  C   -0.61731512322905     -1.08311799918338     -0.05537713865891
  C   -1.52899002246542     -2.13337480306031     -0.05758266054481
  N   -1.03505316297348     -3.40418951629919     -0.12686316867664
  H   -1.61711024236436     -4.16728582334493      0.16780359982541
  H   -0.04728380026894     -3.52025434826450      0.02580913908701
  C   -2.91254132078028     -1.93258874876404     -0.03811100855194
  C   -3.67091236239797     -0.74881142215128     -0.01159902063551
  N   -5.01694160546116     -0.95194985965640     -0.04483959979393
  H   -5.38064848382705     -1.87283702728013      0.10919567576225
  H   -5.65184607701693     -0.18663619100116      0.10082797214060
  C   -3.28355823328944      0.63799192947911      0.02285210962524
  C   -4.31988249470671      1.57756567578669      0.09777521315130
  N   -5.17301460218325      2.37383125430707      0.15946788005368
  C   -1.96340564530584      1.18022206639333     -0.02234583178284
  N   -1.79815343527783      2.52083582731554      0.02327872593305
  H   -2.58264572496444      3.14483131347608     -0.03908435564935
  H   -0.87175598929818      2.89827410337780     -0.07245024378640
  H   -3.50676555650091     -2.83775268731538     -0.09401812685645
  N   4.03875993820805     -2.08348010046505     -0.05864253417810
  H   3.75108227376555     -3.02724488906443      0.12316083004230
  H   4.98895583657431     -1.83921214536714      0.15487636924556
