31
Coordinates from ORCA-job ./opt_b97-3c_parallel
  N   -4.96768835213477     -2.48722283551066     -0.00059459607687
  C   -4.06288485268881     -1.75499694672773     -0.00051431667609
  C   -2.90274691204616     -0.95126707403908     -0.00039144331358
  C   -1.66138406161227     -1.64871575399336     -0.00024246751598
  C   -0.44358049275507     -0.96389171249629     -0.00010694120204
  C   -0.04069805260038      0.47022982773355     -0.00002830937478
  C   -0.80401950787140      1.62583988713062     -0.00019773662734
  N   -0.25270553677156      2.84956703666521     -0.00021815548215
  H   -0.83317504453483      3.67113965822871     -0.00025968737179
  H   0.74228506260787      2.98835375498779      0.00002112717299
  C   -2.25723983546955      1.55536177407338     -0.00038839662767
  C   -2.91980407055729      2.80444866519630     -0.00051122443550
  N   -3.40066511025426      3.86436819102281     -0.00065693589336
  C   -3.08530439305709      0.44054547543108     -0.00045281109431
  H   -4.13373298574421      0.71077211019242     -0.00058495962971
  C   1.32363341746870      0.08048558356138      0.00011630299251
  C   0.88019460850537     -1.37730420784127      0.00004833039661
  N   1.48942844443482     -2.54240472129091      0.00013765997723
  C   2.82316654390894     -2.59673173953484      0.00032860551677
  N   3.77798752583221     -1.67165372228719      0.00048768431454
  C   3.75065080804481     -0.34746438967954      0.00041029059036
  N   4.97380546409410      0.23234266244770      0.00012308276071
  H   5.11043863891424      1.22614644332137      0.00204892770425
  H   5.77320050603727     -0.37414337827244      0.00161472530232
  C   2.60715177421163      0.55356637965009      0.00028780936714
  C   2.85524659618861      1.94304669866565      0.00045677135960
  N   3.07865679738140      3.08487983029865      0.00080695835171
  H   3.21582120684081     -3.60715114578016      0.00041193754178
  N   -1.62376843165528     -2.98617270675094     -0.00022258136992
  H   -2.46866299679732     -3.53234274320997     -0.00035853174084
  H   -0.72989724392052     -3.45427336509227     -0.00013365971656
