31
Coordinates from ORCA-job ./opt_b97-3c_parallel
  N   -3.25720362356722     -3.89458010790197     -0.00123266278075
  C   -2.69416247996317     -2.87503535823745     -0.00081503726461
  C   -2.06964712613076     -1.61002428673788     -0.00021467871927
  C   -0.65181438843728     -1.62961089634214      0.00000979206012
  C   0.13358260091746     -0.52995706814626      0.00044856332286
  C   -0.19348802969832      0.90140861690827      0.00073690382446
  C   -1.42084453653707      1.58775492514658      0.00095993193388
  N   -1.34462269190247      2.92640576339025      0.00141233518516
  H   -0.43654523028089      3.36455831245968      0.00164183892145
  H   -2.16649971801103      3.50572632690356      0.00168768850709
  C   -2.66998866155321      0.92874756962404      0.00078362379041
  C   -3.78250982165841      1.78775492285795      0.00122559695503
  N   -4.68495894754202      2.52637165522791      0.00170535852685
  C   -2.95804910538006     -0.49331205654044      0.00012275033824
  N   -4.27188670568533     -0.78783850686631     -0.00016329276350
  H   -4.97200028575198     -0.06737801165848      0.00010149697447
  H   -4.58210247775305     -1.74468926380113     -0.00050675555496
  C   1.14748735594334      1.26699557084108      0.00102817452132
  N   1.81984737736693      2.40733464816305      0.00146175471065
  C   3.14779630580055      2.38328562296601      0.00172545083227
  N   4.06004856816601      1.40506529612616      0.00168329222079
  C   3.96174179034915      0.08811814624586      0.00135607719541
  N   5.13883126595241     -0.56928904572373      0.00140027771456
  H   5.20147380803034     -1.57139057534645      0.00140431871464
  H   5.97999457958058     -0.02108543989900      0.00186571948470
  C   2.76173458277774     -0.75188027623348      0.00093735396380
  C   2.90483555005561     -2.15805396405894      0.00076904289687
  N   3.07254473101680     -3.30791801645159      0.00070844770229
  C   1.52926087784434     -0.18708362192140      0.00076575122331
  H   3.60007407359851      3.36875789143653      0.00208494345840
  H   -0.18621784434748     -2.60585517933030     -0.00019217459593
