31
Coordinates from ORCA-job ./opt_b97-3c_parallel
  N   -4.38782501904673     -2.48123990757495      0.13537726987225
  C   -3.54531112082861     -1.67470442398938      0.07065566950091
  C   -2.52897049229460     -0.71173371296912     -0.00022919032834
  C   -1.18625877827198     -1.21550315746248      0.01335021288077
  N   -1.01228207054376     -2.57316855692842     -0.00625537176578
  H   -0.13915708149931     -2.91848946954785      0.34780978198838
  H   -1.80573314867098     -3.15058715187237      0.21878975351492
  C   -0.09291784207211     -0.38268641377028      0.00616472137834
  C   0.00490852077839      1.08414276296283      0.04962926697255
  C   -0.99908266437895      2.04999066330446     -0.03753526910207
  N   -0.65635167870020      3.36975036770006     -0.03408157641020
  H   -1.38426993103029      4.00622627660725     -0.31019944245577
  H   0.27832245775764      3.61942472069157     -0.30181441356795
  N   -2.30933504587111      1.82591025610103     -0.10313929233114
  C   -2.95979869154887      0.65570807250574     -0.06657958691210
  N   -4.30018488061977      0.84738509894367     -0.12235356460578
  H   -4.62521646664954      1.79400862115425     -0.06032295350845
  H   -4.95422962990909      0.09321073329003     -0.01667337430389
  C   1.41019639780743      1.02436516286959      0.08428486328467
  C   1.32939492911376     -0.47797447268559      0.02652967521056
  C   2.32631513045434     -1.39728027765239     -0.02569519811148
  C   3.71558979286599     -1.08086290751892     -0.01884587638491
  N   4.57793406346893     -2.15763456161521     -0.08941375328924
  H   4.26060602802225     -2.98323166765236     -0.56663855452825
  H   5.53047322294688     -1.89892659206721     -0.28475212387449
  N   4.33597452977301      0.08741679796367      0.09971374976000
  C   3.83663720188932      1.31555182808158      0.21133498789251
  C   2.53176217896004      1.81131659255010      0.18902753163308
  H   2.43341111926243      2.88759404755401      0.28390131636269
  H   4.61147796475687      2.06925309653265      0.32298815772218
  H   2.07451767717885     -2.45111495570596     -0.09246782859414
