27
Coordinates from ORCA-job ./opt_b97-3c_parallel
  N   -5.32423505263122     -2.11602290553014     -0.00163629079250
  C   -4.36762077467769     -1.45096707351813     -0.00133067862937
  C   -3.24992724989124     -0.59203446733310     -0.00111289215590
  C   -2.00544392978310     -1.18596076809003     -0.00016262738249
  C   -0.80200952989540     -0.49837313836282     -0.00009395307440
  C   -0.57214583399293      0.96211176558890     -0.00158009537723
  C   -1.43778335015675      2.00121261491670     -0.00290691063556
  N   -2.79189428202240      1.94860943016918     -0.00230177552494
  C   -3.55292382748543      0.87620148979601     -0.00119243841479
  N   -4.86855006058299      1.14716257924485      0.00008432369124
  H   -5.13802566044129      2.11565469244044     -0.00007135043203
  H   -5.57538607361981      0.43236338791942      0.00076025903401
  H   -1.03902913995324      3.00958062393469     -0.00438794377055
  C   0.84901973125221      0.72226774044940     -0.00151009747730
  N   1.90514457585988      1.45832549912708     -0.00246533340637
  C   3.14349085960648      0.87649239427944     -0.00207542468569
  N   4.12782571103710      1.79067523401849     -0.00309650183352
  H   3.86754817450319      2.75971732431706     -0.00401675557378
  H   5.09974702444513      1.53679711849989     -0.00303455084411
  C   3.47955485701892     -0.50970361255311     -0.00079963026755
  C   4.86927739981990     -0.77677889682048     -0.00075123288312
  N   6.02212368356025     -0.93215391617940     -0.00075496321504
  C   2.65919340164121     -1.67242931345280      0.00041246583781
  N   1.34937742502374     -1.83791525636966      0.00081807378925
  C   0.57062426370274     -0.77018812687164      0.00002510610328
  H   3.22375882445746     -2.59826157582287      0.00114470461798
  H   -1.97395569899471     -2.26838843139739      0.00039479800266
