23
Coordinates from ORCA-job ./opt_b97-3c_parallel
  N   -1.80848759659301     -3.29989567275658     -0.20422570224607
  C   -1.65710329005749     -2.15088219809865     -0.11761858588170
  C   -1.54619915319913     -0.74651621697388     -0.01056015196710
  C   -0.33704209421030     -0.15270688820033      0.06954549263768
  C   0.04187392765185      1.28182680125895      0.15676117353411
  N   -0.66363595398690      2.41452726222764      0.13309317787630
  C   -1.97481616360470      2.37177959490087      0.08062438099760
  N   -2.89408538341451      1.37924709230220      0.06180098609743
  C   -2.77522438064306      0.07513738734606      0.02960244905410
  N   -3.92672928875400     -0.61941511339357      0.02462098935251
  H   -4.78641413605312     -0.09955214014151      0.03966571722886
  H   -3.95698019068004     -1.62304029012360     -0.00100134763784
  H   -2.44521351735154      3.34881667747478      0.05553301000950
  C   1.39365054924047      0.93100258660004      0.14594277916391
  C   1.07862649786342     -0.50740475083493      0.05334141919926
  C   1.88712131501833     -1.57250965878368     -0.08382857319124
  N   3.24821997429312     -1.51121721460729      0.15990074702975
  C   3.95670063617580     -0.43934295039292      0.16482740348388
  N   3.76066424737833      0.86224588914672     -0.30660463380301
  C   2.64400878282788      1.50514660718352     -0.22242758929878
  H   2.64803280397610      2.53885235241419     -0.56241205716676
  H   4.96567740024307     -0.55560466116681      0.55300389127095
  H   1.49367018597876     -2.56428314068106     -0.26263251304305
