33
Coordinates from ORCA-job ./opt_b97-3c_parallel
  N   -5.29402876814672     -2.25002704847972     -0.08936555644033
  C   -4.32077047326911     -1.60697140051360     -0.06299373636881
  C   -3.18004308187381     -0.78749074210242     -0.02805833874691
  C   -1.91501668282255     -1.43568005404424     -0.02613323400393
  C   -0.72888542894629     -0.79795916146977     -0.01268655265348
  C   -0.35708054230718      0.62718140612257      0.00741866826200
  C   -1.24942629364749      1.73333193131413      0.08875348123856
  N   -0.75698288583311      2.97761789355775      0.22353517835424
  H   0.22366653585867      3.18777029678687      0.15822421929974
  H   -1.41473077696649      3.73667809889045      0.21381943521195
  N   -2.57378532771054      1.67672310227878      0.06508226140968
  C   -3.40734800972564      0.62051920309441     -0.01485406210297
  N   -4.69526966929793      1.03006709227859     -0.08921372571941
  H   -5.46038976625694      0.37950889556892     -0.07896125298929
  H   -4.87374589797523      2.01137275801110      0.01266239481385
  C   1.01112970552256      0.31429430834822      0.00778368330925
  C   0.67246669388707     -1.13924569419339     -0.01540459826874
  C   1.42552303855169     -2.25348905279654     -0.03398262623009
  C   2.85257009690206     -2.27179551201927     -0.00705183775349
  N   3.41477511159962     -3.52964399121304     -0.05381185827290
  H   4.37954383714624     -3.61647500815663      0.21394618197763
  H   2.84459400060965     -4.29550578398817      0.25884179506505
  C   3.71103485923701     -1.18526258531622      0.01768100610585
  C   3.51028697278976      0.20932269491144     -0.00362311644000
  N   4.66448570847152      0.96045394767144      0.05845140405190
  H   4.59829825934632      1.94027145547226     -0.16054655711853
  H   5.50426919379327      0.53029167252523     -0.28527261309619
  C   2.27903684018310      0.91417630354390     -0.02283446500247
  C   2.35414419841599      2.31697282441962     -0.09694453669381
  N   2.42668492782767      3.47813428273531     -0.16950123024524
  H   4.76027461949884     -1.45957663950955      0.06454056260532
  H   0.92041935226476     -3.21240606048376     -0.06779768000572
  H   -1.92909500172678     -2.51808829474469     -0.04098766095274
