32
Coordinates from ORCA-job ./opt_b97-3c_parallel
  N   -3.85259454235693     -3.71889170212673     -0.00017013032626
  C   -3.12400070463145     -2.80971057481622     -0.00071381699419
  C   -2.28693395478538     -1.67581054182640     -0.00132618496374
  C   -0.89836481589262     -1.92681638979571     -0.00299299970794
  C   0.07046450958759     -0.98611175250379     -0.00338723450453
  C   0.07091020636774      0.48672845247482     -0.00205195425398
  C   -1.03183510990182      1.36799818955371     -0.00112331621132
  N   -0.80467310870326      2.68884608934035     -0.00080049468871
  H   0.12704636931723      3.06865127952957     -0.00101655233300
  H   -1.56522384373951      3.34716292362330      0.00007144662513
  C   -2.38520282907026      0.91977307907281     -0.00074239972179
  C   -3.33322352238956      1.95860495153696     -0.00017591533141
  N   -4.10688671338138      2.83158634813957      0.00031862168078
  C   -2.94646562373219     -0.41231764301305     -0.00020026362824
  N   -4.29293723828026     -0.45737078793678      0.00148224142224
  H   -4.77312746238940     -1.34083549443468      0.00134986857676
  H   -4.84852890447856      0.37946413639404      0.00197065269006
  C   1.47396313004682      0.54006806137944     -0.00289391491117
  C   1.50509679500894     -0.97236739249484     -0.00432001356510
  N   2.39971166763430     -1.89788205330049     -0.00542075658612
  C   3.73400775027278     -1.62013856887683     -0.00577422217141
  N   4.48627152780919     -2.74723191525261     -0.00944115761988
  H   4.01712102092889     -3.63349631686775      0.00184379808151
  H   5.48726749528676     -2.72435809586462      0.00441389645684
  C   4.39088413541830     -0.37738155158127     -0.00499425186940
  C   3.90065310080612      0.91589694183394     -0.00371511235367
  C   2.57880569513494      1.39250973313905     -0.00268053358302
  C   2.38968081693460      2.79318987243989     -0.00115693093631
  N   2.18726164217861      3.93900250868566      0.00001003555035
  H   4.66007554839074      1.68653882134115     -0.00327061119179
  H   5.47255252933119     -0.44407518462185     -0.00603787017256
  H   -0.59187805422217     -2.96447300277064     -0.00394046445814
