29
Coordinates from ORCA-job ./opt_b97-3c_parallel
  N   -6.08890815134296     -0.11976696325172      0.10907340264420
  C   -4.92953144712083     -0.05803553269541      0.08108979120155
  C   -3.50646243709958      0.01318606125030      0.04614881814827
  C   -2.87889491203140     -1.25603376243887     -0.02055757401642
  N   -1.58712943781298     -1.58781463954619     -0.06712925954746
  C   -0.64638788026528     -0.67812405720694     -0.06615580551906
  C   -0.59948344009093      0.85682201900774     -0.01374985132275
  C   -1.64444463177748      1.72930233226190      0.06913276509612
  C   -2.98213457688967      1.31470147540691      0.09002928365291
  H   -3.72135944952413      2.10196463698086      0.15243970022121
  H   -1.46617493873094      2.79744648540041      0.13611052836517
  C   0.80851259775122      0.75923357373488     -0.03560825370592
  C   0.75037510743645     -0.69999893152211     -0.09053401862759
  C   1.76102665036143     -1.66811107888737     -0.09168625023774
  N   1.37501177010998     -2.96465705604944     -0.17908172055520
  H   2.02547884760949     -3.70178163238341      0.01996034743221
  H   0.39419781285751     -3.17344642180940     -0.08433328282150
  C   3.11025077347410     -1.32362857972349     -0.03124447322437
  C   3.69249857251788     -0.03991928983437      0.01758007895696
  N   5.06131659542987     -0.02488161002315      0.05586922227820
  H   5.47847857865844      0.86205404505315      0.27536188062127
  H   5.56009063773091     -0.84507789171508      0.34719597785833
  N   3.20488041157590      1.21238773757011     -0.01144029384366
  C   1.93317955178932      1.59723739613117     -0.04391682147421
  N   1.74826879536408      2.94669295085200     -0.04005202332124
  H   0.86957993590092      3.31057225522467     -0.36064313084523
  H   2.56341619574128      3.50101692748496     -0.23789663168508
  H   3.81435404824901     -2.14743770560556     -0.04816533177102
  H   -3.55510940217161     -2.10169803886658     -0.03351655425795
