30
Coordinates from ORCA-job ./opt_b97-3c_parallel
  N   5.27808496100437      0.11874066907331      0.08638000613464
  C   4.11525479948690      0.04700980135939      0.02838874207597
  C   2.70979063043636      0.00764647479451     -0.02447142789169
  C   2.11522425206827     -1.34043824492589     -0.10003197757691
  N   0.86803529968475     -1.72225850471481     -0.07427984012870
  C   -0.15803292225347     -0.86401885715268     -0.03355062124810
  C   -0.25598769602982      0.60802236302505     -0.02377341080275
  C   0.68973392886275      1.56030826721767      0.00474630586539
  C   2.10156179858421      1.26971112116437      0.01325243709076
  N   2.88784147208760      2.37692876368265      0.03398825511202
  H   3.88222688797702      2.29214549851995      0.15977330762809
  H   2.48125205958327      3.26190967766175      0.27003394371246
  H   0.41769523800398      2.60871397223117      0.04307254482490
  C   -1.71856407809195      0.49317010763530      0.00180399643723
  C   -1.54564004306862     -0.97616185073119      0.00715880064046
  C   -2.51919123486952     -1.99914499910538      0.02548423437793
  C   -3.85794334473469     -1.78399363137644      0.05377090905766
  C   -4.57792540956810     -0.52716765826236      0.08897002242590
  C   -4.15926003992177      0.75495991993321      0.07204925645879
  C   -2.80305480272068      1.29385367728562      0.00523356183754
  N   -2.72273979492624      2.68834102539285      0.02897119395362
  H   -1.85771356259349      3.05715343581642     -0.32996547827864
  H   -3.50503269574116      3.14784861079805     -0.41081595812067
  H   -4.93798946381275      1.50823793913559      0.12963600954380
  H   -5.65403710984906     -0.64937443487927      0.13901359133764
  H   -4.49252706064772     -2.66139433127021      0.06020922846798
  H   -2.16184456209025     -3.02224717027145      0.00900006109944
  N   3.02768586071589     -2.35569916089104     -0.25229423573877
  H   3.97677355899148     -2.22283549057058      0.05074660022651
  H   2.64370396573241     -3.27134040147564     -0.09512464762247
