28
Coordinates from ORCA-job ./opt_b97-3c_parallel
  N   -4.12829983365232     -1.46489938972668     -0.17808816735876
  C   -3.09918983032085     -0.53738930391139     -0.06449198699264
  N   -1.87585199924860     -1.10117254800433     -0.04241031219199
  C   -0.78473268362890     -0.38686853491865     -0.00927725927304
  C   -0.44289302931382      1.10574142178315      0.03283152569543
  C   -1.31241298333216      2.15944039668186      0.05748994849433
  C   -2.70431520152559      1.98702131296299      0.02166934519552
  C   -3.45900698559989      0.82495172843411     -0.03728426667346
  H   -4.53033923887753      0.99257957007123     -0.07367327031417
  H   -3.28691436094068      2.90024565859264      0.04471769320354
  H   -0.94250990990109      3.17760821899195      0.12206617397734
  C   0.92319114864409      0.75352523854336      0.05745207252602
  C   0.58752364197251     -0.68661180229148      0.02252059966532
  C   1.39061764280257     -1.81223265759819      0.02078999903280
  N   0.80824351621938     -3.03849032639905      0.03982657027300
  H   1.34974931847929     -3.84522181014957     -0.21143746421856
  H   -0.18435596053322     -3.08664911845830     -0.12054124550860
  C   2.80333958348581     -1.70113328848356      0.03919776063940
  C   3.58014533431129     -0.55430864741700      0.06549540862356
  N   3.37165903534832      0.76655234030172      0.05201423344456
  C   2.17339835159089      1.37347166328596      0.04067596837264
  N   2.24488830796978      2.73480496892730      0.04316030927650
  H   3.15138217853464      3.11481183254895     -0.17100753774567
  H   1.44880096567720      3.26025060044180     -0.26975374761839
  H   4.64549408960042     -0.77605512206154      0.09135338347616
  H   3.36181508486665     -2.62963723406085      0.05798844612213
  H   -3.85188013009052     -2.39327921642423      0.09480305668413
  H   -5.01604339113769     -1.19111678736218      0.20715927729287
