30
Coordinates from ORCA-job ./opt_b97-3c_parallel
  N   -4.76781886928276     -0.58008570112041      0.04021380311677
  C   -3.39725845661403     -0.38483541321796      0.01342797362828
  C   -2.63125714761839     -1.54886424827461      0.01647017627457
  C   -1.22998999151307     -1.68178911523970      0.08587110198984
  N   -0.68834293454217     -2.93703541458727      0.17519643910091
  H   0.30482460457088     -2.99958854245887      0.01321265175169
  H   -1.22809851503766     -3.70481475566848     -0.18349190103566
  C   -0.36895790004259     -0.60165505242758      0.10114877561931
  C   -0.57760848677753      0.85900174585901      0.03203845355394
  C   -1.77837476494748      1.58748065298999      0.04143596275746
  N   -1.68931898792433      2.95984158912287     -0.00774869936269
  H   -2.50424614313648      3.47677978134046      0.27487549678295
  H   -0.83143710185091      3.35356431593488      0.33749226189336
  C   -3.02989934330698      0.99001772889628      0.04439602065236
  H   -3.87044118079039      1.67485948892019      0.07630095859588
  C   0.79755199841585      1.10949205264541     -0.01430937278789
  C   1.02657750042109     -0.40442124999226      0.04768392553261
  N   2.06547934407822     -1.17992976948438      0.03458438657329
  C   3.32316262117946     -0.64463612015600     -0.03656694749641
  N   4.30022183480085     -1.61517506215262     -0.08422743224760
  H   4.04479664201188     -2.51076393102231      0.29209258306728
  H   5.22637332505817     -1.29127708158584      0.13127210288870
  N   3.77891643768831      0.59809855809706     -0.10220549652266
  C   3.12827724091116      1.76326924547270     -0.15087286864902
  C   1.76904670950796      2.07691688640043     -0.11857445693487
  H   1.51276496711498      3.12935067599689     -0.19192712705834
  H   3.80070211729263      2.61400915399393     -0.22630335631774
  H   -3.19181091667755     -2.47715843518465      0.02446938603120
  H   -5.09595543567796     -1.48772439692297     -0.23973999091102
  H   -5.33532429821113      0.16894073082586     -0.31603963048624
