32
Coordinates from ORCA-job ./opt_b97-3c_parallel
  N   -1.29907878279544     -4.00861628175448     -0.22934104985600
  C   -1.55366358278584     -2.87529105142671     -0.16437691391596
  C   -1.83326009801331     -1.48876375254886     -0.09142765211142
  C   -0.77800002260323     -0.58762854040239     -0.04767546628538
  C   -0.85647420597881      0.92670551409762     -0.03159519154702
  C   -1.91809481956238      1.77881533087951      0.03314476590923
  C   -3.27999601194587      1.41382650327014      0.05495799154272
  N   -4.19854528960056      2.46335327853083      0.07927456928459
  H   -3.86757199296177      3.31081815891008      0.50966153575332
  H   -5.11539974617758      2.21897369525541      0.41471787136531
  C   -3.80122871378263      0.11480389749805     -0.01392236319979
  C   -3.19671637745345     -1.12693310206542     -0.08273614940014
  H   -3.88292843390155     -1.96220608606921     -0.12388924342756
  H   -4.88562266670605      0.07087288698489     -0.01320047814811
  H   -1.71254913010763      2.84329993689468      0.09471910067359
  C   0.55593790535860      0.97379976729815     -0.03507244450702
  C   0.62614391774499     -0.50042875862409     -0.03818266208371
  C   1.76358153805848     -1.33200071863631      0.05144118260993
  N   1.62314595427292     -2.66918405732124      0.13234302217598
  H   2.46306631021386     -3.21877840605138      0.11784718846064
  H   0.73853984437733     -3.13411550004930      0.02154673305214
  N   3.03459584837782     -0.92556225769562      0.09858161010229
  C   3.51244440834116      0.32471827017789      0.04033011608896
  N   4.88799119604878      0.32162143231996      0.03022332297487
  H   5.37396940294108      1.15134134339431      0.31887779508646
  H   5.30425352576539     -0.55058455007481      0.30596878581540
  C   2.91723014593096      1.59491409350836     -0.04905175641533
  C   1.56065407175123      1.92779430254927     -0.08343988695662
  N   1.21599302808621      3.26670852586540     -0.12165655444169
  H   1.93906722072768      3.88700696739946     -0.44590866892862
  H   0.33129692804266      3.46383104556981     -0.55667139244136
  H   3.61167906643703      2.42441286481607     -0.11755057692980
