27
Coordinates from ORCA-job ./opt_b97-3c_parallel
  N   -4.74144022464142     -1.60492225594719      0.00273529590653
  C   -3.78386534999018     -0.94248856721671      0.00216208466056
  C   -2.57371625395515     -0.21717510794191      0.00119077621484
  C   -1.36924517749543     -0.99685850073152     -0.00126667775926
  N   -1.42693340832659     -2.33687052880266     -0.00301002396735
  H   -2.30632189220172     -2.82355413178093     -0.00208705756401
  H   -0.56937617219549     -2.86468587140667     -0.00377402808976
  C   -0.13149757721078     -0.37607953904033     -0.00147414090298
  C   0.27958133912156      1.03252348694366     -0.00009455738949
  C   -0.51226039148114      2.18087546664468     -0.00057907457937
  N   0.05654684675293      3.40363382979334     -0.00129101746015
  H   1.04968309782911      3.52940821471691     -0.02287789661588
  H   -0.54682997262569      4.20600515077619     -0.01463484275315
  N   -1.86218875758778      2.21675339006478      0.00204680447404
  C   -2.68733928328429      1.18618019607558      0.00343139070804
  H   -3.72569093426854      1.50790288202671      0.00633138159071
  C   1.64883857998004      0.66992532067243     -0.00052646812254
  C   1.21275644041065     -0.79233115374783     -0.00236732735753
  N   1.81040728874754     -1.95220460045352     -0.00363682545662
  C   3.15257543490862     -2.03661508347083     -0.00342478048136
  C   4.13273253352973     -1.03978326578950     -0.00111360300741
  C   4.05773810840357      0.35078752679985      0.00150462525000
  C   2.91924688528311      1.17090778686641      0.00204029801609
  H   3.08693886805665      2.24352980263663      0.00558610147603
  H   5.00991700153140      0.86693196433240      0.00361147397386
  H   5.14197847343943     -1.43631065120884     -0.00110806600835
  H   3.52160792586981     -3.05577342231115     -0.00505249625548
