25
Coordinates from ORCA-job ./opt_b97-3c_parallel
  N   -3.46938740342786     -2.23401000700994      0.04721605580588
  C   -2.51506643255396     -1.24364860617812     -0.02762301744666
  N   -3.08566350023321     -0.01325479950462     -0.00204593533016
  C   -2.55415772374139      1.18123386691518     -0.00487899555680
  N   -3.45435488279202      2.20796670275600     -0.00981413939471
  H   -4.41005319676208      1.96434731245269      0.18333606632442
  H   -3.16014188825530      3.13256694499223      0.24462072777976
  C   -1.16853750226525      1.60168195176769     -0.03590242889033
  C   -0.14739016030000      0.73530064251788     -0.07254892373453
  C   -0.11534043750185     -0.74378295427386     -0.10156852405458
  C   -1.17811568945050     -1.62966951037560     -0.06871591080426
  H   -0.96652408901724     -2.69269615492101     -0.07364804178317
  C   1.29204644946234     -0.72215497808682     -0.11643908839228
  C   1.31905093713655      0.75480010556807     -0.07692383567082
  C   2.35052193720979      1.60497039665060      0.02518798752608
  N   3.67110543714856      1.22569124626152     -0.20150259835755
  C   4.10827656225314      0.01805125381233     -0.13686643241727
  N   3.61377188422927     -1.18833797514690      0.36316206629429
  C   2.36618933963357     -1.54484711911409      0.28076362976284
  H   2.13770881763579     -2.54946676348004      0.63865570861144
  H   5.12789549553346     -0.11115675549574     -0.49563218865588
  H   2.19932924066926      2.66940005893160      0.15722506454272
  H   -0.96590788971269      2.66630313198716     -0.02941158129172
  H   -4.40034771362017     -1.93727952192506     -0.18775555142239
  H   -3.21851494047830     -3.15174616190110     -0.27459402604432
