33
Coordinates from ORCA-job ./opt_b97-3c_parallel
  N   6.60727267892655      1.08360731468725      0.00065060683966
  C   5.46426569277718      0.88389199466154      0.00049045721013
  C   4.05744791750781      0.64921761213430      0.00048109909548
  C   3.28490805706797      1.83233064829617      0.00151182145240
  N   1.96044734567024      2.00287389133748      0.00210099273752
  C   1.13421334815687      0.99259484783782      0.00161290489490
  C   1.24065652754891     -0.53148778871300     -0.00015456757076
  C   2.40322316038739     -1.27625383000175     -0.00103298770943
  C   2.32217542843127     -2.69325693363339     -0.00246080167509
  N   2.20002363256582     -3.84841116033474     -0.00346279728599
  C   3.68981689148083     -0.70220964678143     -0.00060526355660
  H   4.51074786244266     -1.40450485309894     -0.00132327243695
  C   -0.16836063849958     -0.58769543644218     -0.00041139088330
  C   -0.25773780463386      0.87472976373212      0.00192061692859
  C   -1.30096932961796      1.80097755009788      0.00070554413128
  N   -0.95921633335134      3.09942079545205      0.00124541446825
  H   -1.64952018416331      3.82952225298841      0.00023561203387
  H   0.01838497901861      3.34690999742930      0.00181218175587
  C   -2.66424000534177      1.41640441994306     -0.00135927382722
  C   -3.58361066493015      2.48122300581749     -0.00339054428431
  N   -4.32640675946450      3.37886700926877     -0.00509381337676
  C   -3.21879222844941      0.09746199878648     -0.00042262622640
  N   -4.56637504002149      0.05544917556339     -0.00100816957046
  H   -5.11131842208793      0.89943964322104     -0.00139215322970
  H   -5.06353013641511     -0.81745105470417     -0.00104668337234
  C   -2.57461192864228     -1.18609308412295      0.00125332596853
  C   -3.45558109433539     -2.28517044670321      0.00279811482499
  N   -4.17216149495756     -3.20388944513743      0.00399471440974
  C   -1.19439929193496     -1.54845119734968     -0.00011626955780
  N   -0.88107612416280     -2.85223980236366     -0.00079799892410
  H   -1.59588534782125     -3.55942685150129     -0.00085635679061
  H   0.07332214495103     -3.17011795562324     -0.00095004439062
  H   3.85165396479752      2.75425088095649      0.00201428081727
