28
Coordinates from ORCA-job ./opt_b97-3c_parallel
  N   -1.78863095561860     -3.73797837840412      0.03766587331394
  C   -1.64149358124140     -2.58461841806824      0.02906040183934
  C   -1.53867160927299     -1.17669042099293      0.01828843483101
  C   -0.33674212763553     -0.56501796089385      0.00664902173290
  C   0.01421500151333      0.86294932609425     -0.00547423710753
  N   -0.68808646875031      2.00002079269097      0.00467244491033
  C   -2.00561863078923      1.95741907713895      0.03359233562889
  N   -2.63331652037262      3.16658320269724      0.12280907605406
  H   -3.60779017042654      3.19270089768177     -0.11304066010929
  H   -2.08106483565810      3.98026387551379     -0.07799738947791
  N   -2.91439789154727      0.93393771011242      0.01385233334331
  C   -2.77487351526380     -0.35936828287650      0.00259145128342
  N   -3.91627377980292     -1.07687526896032     -0.03627873924327
  H   -4.78783017869878     -0.57914151319644     -0.02122831788072
  H   -3.92158838529722     -2.08061592759668     -0.01830155182855
  C   1.36466107900151      0.52173923195746     -0.01951611369145
  C   1.09639802087113     -0.90780360648151     -0.00232908787325
  C   1.91416002386851     -1.97298468385345      0.00224450555684
  C   3.34218833420122     -1.82212797894657     -0.00889350243337
  C   4.09466355125031     -0.68380874097342     -0.01710794515122
  N   3.81847047036494      0.66445091400018     -0.01004531035967
  C   2.63489930768628      1.20863212912927     -0.01443586914763
  N   2.53455374508007      2.55551429697470     -0.01570815528724
  H   1.63240023031211      2.99885516638273      0.03052547115866
  H   3.37435846052599      3.10479174719114      0.03367640622644
  H   5.16641985568545     -0.85262674383262     -0.02632510418564
  H   3.91441818710608     -2.74128789929088     -0.01168131989518
  H   1.50107427700837     -2.97272731419731      0.01535753199281
