30
Coordinates from ORCA-job ./opt_b97-3c_parallel
  N   -5.70835266492612     -2.27379998932865     -0.01812310204789
  C   -4.81390403957008     -1.53053152559548     -0.01253324454401
  C   -3.69943873685031     -0.65555093601394     -0.00551245029302
  C   -2.39615386770240     -1.29423020478784      0.00497821201426
  C   -1.26443344504745     -0.58098446221674      0.00221121438162
  C   -1.01669950754680      0.85584415442289     -0.00949477327097
  C   0.36466813346098      0.69313685006498      0.00096488422493
  N   1.41260228225470      1.51680172796813      0.00593739858080
  C   2.65239719445185      1.07455030536435      0.02373804192022
  N   3.59613674882122      2.05241956056200      0.09002174842999
  H   4.56303905790063      1.86435646946089     -0.10314335395998
  H   3.26816310280463      2.98972448687085     -0.05578224620446
  C   3.17732985742388     -0.29523353479856      0.01243730499209
  C   4.58155766680630     -0.39549535415023     -0.00538598881332
  N   5.74120462322413     -0.51079038789920     -0.02664940394566
  C   2.51577251948494     -1.53676107584398      0.01359720681726
  N   3.25309773925216     -2.66646710328236      0.01221339317645
  H   2.80871320162768     -3.56372716935004     -0.01247751786598
  H   4.25815067673656     -2.64395017184596     -0.00233174625202
  C   1.09195788457370     -1.76797450976469      0.01921898014894
  C   0.19836920975902     -0.77509167989208      0.00937745420880
  H   0.75784576474852     -2.79852341784793      0.02660422793383
  C   -1.95842759335430      1.93586903744963     -0.00025145356439
  N   -1.42049085919783      3.16751707889098      0.01187346499262
  H   -0.42147685364064      3.28759653190014      0.02942899547315
  H   -2.03168611430845      3.96516323167671      0.03450223977678
  N   -3.26943718154969      1.84070796082324     -0.00164648781638
  C   -3.99672962963691      0.69560030549299     -0.01113085373955
  H   -5.06024704739492      0.90814740608756     -0.02157331947762
  H   -2.36954345930503     -2.37502772731767      0.01444832272352
