30
Coordinates from ORCA-job ./opt_b97-3c_parallel
  N   -4.78361784766003     -1.85475261882946      0.05480447440046
  C   -3.82256057108528     -1.19234684172185      0.03596404871342
  C   -2.65282559372628     -0.41932560814438      0.01430818489506
  C   -1.43750219056017     -1.14337516284217     -0.02007639946171
  N   -1.43430776339524     -2.48746667021673     -0.03931303053025
  H   -0.55185230880981     -2.97205593665222     -0.06140012753088
  H   -2.28706077544093     -3.01822584970132     -0.02838440889602
  C   -0.19756929016889     -0.50019281902021     -0.03433739290520
  C   0.17865481440698      0.92049930755355     -0.02052725156103
  C   -0.62799584722209      2.03878138195823     -0.03442621527723
  N   -0.07779539405369      3.29658008258640     -0.04803958224300
  H   -0.72545258995443      4.02489817826022     -0.29800088849765
  H   0.83787611985017      3.38938491511825     -0.45088305089964
  N   -1.97210660726125      2.04482930309011      0.01041231240878
  C   -2.81734431711125      1.02471454445279      0.05273175468680
  N   -4.10513358823232      1.43818507602057      0.12272378001893
  H   -4.26683657191272      2.42604397622087      0.18235955934411
  H   -4.87650896454130      0.80181287182591      0.20594242410022
  C   1.55842123465033      0.56452641774516     -0.02965668835502
  C   1.13568183256801     -0.89745473808298     -0.04855100217953
  N   1.77798006904971     -2.04764050967219     -0.08383601919449
  C   3.11324966754164     -2.06067207464956     -0.09245003218836
  N   4.04888320486192     -1.11278718854972     -0.03199700992521
  C   3.96040093807589      0.21135958973173      0.02344175380978
  N   5.17836216675012      0.84362497032293      0.05632084818410
  H   5.23518630853145      1.77530167773157      0.42650270219046
  H   5.96037207887223      0.24268406007551      0.25297503661514
  C   2.81253394749753      1.06649494085869      0.00997820618593
  H   2.98511302819407      2.13772852888918      0.04464121040185
  H   3.53311583018562     -3.05960721295892     -0.14380523830977
