25
Coordinates from ORCA-job ./opt_b97-3c_parallel
  N   -4.91664230074250     -0.21028425361766      0.05766430399709
  C   -3.56204455424813     -0.20083733329789      0.02702298564275
  N   -3.12696369459782      1.11443786939499      0.04071631868367
  C   -1.87434375451805      1.50079016176853      0.03475055187311
  C   -0.71881451239540      0.72232190820139      0.01528196741454
  C   -0.56769243520182     -0.75211283420128     -0.01064912943275
  C   0.85676934778275     -0.60750877107454     -0.02388235138785
  C   0.67288758316936      0.89991596086075      0.00184523674181
  N   1.51512757918299      1.91299198750008     -0.00606957072267
  C   2.82834882463796      1.69262336773688     -0.03160530707615
  N   3.59684077465320      0.59644422351049     -0.03233024552049
  C   3.28326346705289     -0.69030424509909     -0.03877655932309
  N   4.36517921799550     -1.53171998628065     -0.08116085588798
  H   5.25170822765550     -1.09613747685287      0.10741834845194
  H   4.26212502597328     -2.48163434824311      0.22699740307252
  C   1.99691902768212     -1.32579333909770     -0.05011784090838
  H   1.96257476759900     -2.41022014798570     -0.08341126822133
  H   3.41584835550294      2.60463668228447     -0.04371523402889
  C   -1.53107934314168     -1.70852694112353     -0.01929468791802
  C   -2.91127963410180     -1.43838016489285     -0.00245170629865
  H   -3.56499967676256     -2.30230699548410     -0.00794037618583
  H   -1.23915116079224     -2.75262988306212     -0.04199358684929
  H   -1.73957342614828      2.58007738147046      0.04586581949686
  H   -5.38412845087981      0.67649767607026      0.00828834998836
  H   -5.44793650645735     -1.05609321928521     -0.02656511900127
