34
Coordinates from ORCA-job ./opt_b97-3c_parallel
  N   -6.06320221614943     -0.68087343858854     -0.10108131032231
  C   -4.91602706999204     -0.48417456833237     -0.04299456208303
  C   -3.53020924631950     -0.23257091682901      0.01191417725789
  C   -2.71251916221903     -1.41890471414808      0.07984525935701
  N   -1.38542237963872     -1.55104854822857      0.06229000806560
  C   -0.57326627977536     -0.52006466766487      0.02842683794585
  C   -0.74611674148590      0.98882605437383      0.02362474702149
  C   -1.88791437444449      1.71572474005019     -0.00614707089053
  C   -3.18664628857101      1.14653721174284     -0.02119591853794
  N   -4.21112973238116      2.05243675501634     -0.02973288136445
  H   -5.14837303918919      1.74087380861919     -0.21903934502099
  H   -4.00628110208926      2.99081068955509     -0.31848830611593
  H   -1.83786991166827      2.79890779595132     -0.03760791204783
  C   0.66812554185968      1.11735949973646      0.01213461998207
  C   0.80961421791396     -0.35519665937016      0.00301580904922
  C   1.92970927202290     -1.18076398323125      0.00493347287496
  N   1.72840187751274     -2.51382060407285      0.00762422686306
  H   0.78874041754232     -2.86092337881917      0.09243281699061
  H   2.49518853334523     -3.15787948841981      0.08717637936653
  C   3.24739610428887     -0.65599048416824     -0.01074239668086
  C   4.28070645222351     -1.60204240169573      0.00589881706984
  N   5.12675252910227     -2.40719464362007      0.02368250965108
  C   3.63730942772407      0.74214242040187     -0.09198784084823
  N   2.96882781240011      1.88589166103148     -0.03957734854464
  C   1.64071576969841      2.09131654632727      0.03331636139671
  N   1.29779321374935      3.42309838355690      0.08259216214886
  H   0.43052658562706      3.64849980786847      0.53761964649111
  H   2.06470870723121      4.02705633787285      0.32805917661472
  N   4.96928304676570      0.94260475245666     -0.23304513807877
  H   5.63393594684909      0.19064881723396     -0.22075693187398
  H   5.29335983198078      1.89154440628508     -0.21644503091688
  N   -3.36724587715957     -2.61318763294682      0.20113646330378
  H   -4.34400603943457     -2.68247559973407     -0.02274943327254
  H   -2.80607539971973     -3.42532783331015      0.01840268634845
