28
Coordinates from ORCA-job ./opt_b97-3c_parallel
  N   -5.93156192291162     -1.60982726689038      0.00005275633135
  C   -4.79968911911236     -1.35495394497002      0.00014670908526
  C   -3.40891566026773     -1.03717488764762      0.00026688910094
  C   -2.55488332207231     -2.13481335824936      0.00039067862320
  C   -1.14750981796001     -2.15718768823642      0.00053561552514
  C   -0.35236627668901     -1.05981973644784      0.00056485523119
  C   -0.65393958064475      0.40710912978853      0.00044158163081
  C   -1.91240810091894      1.01734288438502      0.00032027734536
  C   -1.96490061728086      2.43780583936705      0.00029563526421
  N   -1.95844696775428      3.59879340261522      0.00028600219187
  C   -3.13564532958916      0.35292215519202      0.00024245235159
  H   -4.00957674838664      0.98753068438289      0.00014925831932
  C   0.72231507806764      0.69246313569707      0.00054201910890
  C   1.04621880302166     -0.74577789802250      0.00066811104366
  C   2.22071073229814     -1.42681064240532      0.00088542393331
  C   3.48106728707201     -0.79087380248006      0.00097425586698
  C   4.62970506498132     -1.62064146446448      0.00125293455323
  N   5.56722466177488     -2.30714590161222      0.00147196722147
  C   3.73068014409149      0.59808928776872      0.00082484547316
  N   2.97854850764193      1.68277013326777      0.00055463855626
  C   1.63344078094711      1.77923115688803      0.00040338813764
  N   1.19877056485056      3.04040758127190      0.00007843458076
  H   1.89505380948722      3.76672380176185      0.00005701160879
  H   0.22429865965951      3.29555837998488      0.00001486882167
  H   4.78955139231170      0.84073476466176      0.00094303159388
  H   2.20238179558282     -2.50907081113764      0.00101418872496
  H   -0.67492709058129     -3.13197582483683      0.00061192213470
  H   -3.04283941081898     -3.09940661973200      0.00037720074036
