27
Coordinates from ORCA-job ./opt_b97-3c_parallel
  N   -2.36272881876583     -3.13251624721320      0.08756024177621
  C   -2.09284257454720     -2.00233686447472      0.06348924951256
  C   -1.82828884552417     -0.61223726273173      0.02719176926186
  C   -0.54527946491622     -0.19219048381725     -0.00518920015850
  C   0.06297964127198      1.15255352972134     -0.04848412380696
  C   -0.59469439451560      2.38343077050954     -0.12044803085011
  C   -1.96008048904066      2.52348894196563     -0.12814934059424
  N   -2.97313786816434      1.62851375965059     -0.05124872313050
  C   -2.97148960313706      0.32779172599092      0.03012903398136
  N   -4.18906984554500     -0.26012831828700      0.15842129946180
  H   -4.98989716172843      0.33647519288041      0.05263866720039
  H   -4.31304900406883     -1.25082435664874      0.05420830065552
  H   -2.32767772007946      3.54119659302320     -0.20667052076496
  H   -0.01820271839881      3.29759659261537     -0.20351448163600
  C   1.33406538515274      0.56625824199787     -0.03684472687066
  C   0.79075829783206     -0.78928837759280     -0.00030621361152
  C   1.37404012111095     -2.00353884595549     -0.00833697245746
  C   2.79143237654226     -2.15994172264959     -0.05715340092818
  C   3.76013094248754     -1.19310790330199     -0.07454362311104
  N   3.75883339342469      0.17033303355246      0.00135474967470
  C   2.71392484942564      0.95952610526463      0.02056495564365
  N   2.96152957521459      2.29274407310299      0.07994362849270
  H   2.23537393973031      2.92046740174816      0.37316970078352
  H   3.91233134402151      2.56167605806655      0.27060989997759
  H   4.77483630399398     -1.57417060543754     -0.13326300009162
  H   3.16101810436729     -3.17637713190784     -0.09817071488575
  H   0.75815044545608     -2.89296334667177      0.00822168237565
