30
Coordinates from ORCA-job ./opt_b97-3c_parallel
  N   -5.33203946173607     -0.03229498133026      0.00045731286066
  C   -4.16681668102617     -0.03124155358658      0.02240745109428
  C   -2.75771111812427     -0.01691012094764      0.03366500177644
  C   -2.15054704851070     -1.32788336958735      0.03994043400296
  N   -0.86203198743250     -1.67245457703128     -0.00252989693645
  C   0.06874835621895     -0.74605593645725     -0.04004918533256
  C   0.04317469645788      0.79796488788641     -0.03126803629456
  N   -0.89715478676859      1.68964186814285     -0.00038474627065
  C   -2.19614206285647      1.29486780475072      0.02978609075264
  N   -3.04310449755838      2.35753941892192      0.09031026430469
  H   -2.63730237684064      3.25461630468078     -0.10124500611245
  H   -4.02973252900544      2.24662809664040     -0.05971122647091
  C   1.44965412076854      0.79507029051140     -0.06549588492770
  C   1.45173919685059     -0.69644714087047     -0.07737018995109
  C   2.52640924228052     -1.61063832111133     -0.02797965503623
  N   2.21405635688676     -2.91965682371562     -0.00483872920513
  H   2.95786212805254     -3.58749175275651      0.09427842448770
  H   1.25364268930947     -3.21373957850836      0.04389677371956
  N   3.82486652602084     -1.31723542029131     -0.00397950760985
  C   4.33138799532037     -0.06619781851723     -0.02251292161632
  C   3.84693710590809      1.22471179964890     -0.03318344740434
  C   2.49629431691403      1.68711796444694     -0.04939955160685
  N   2.25904024930209      3.02705487214844     -0.08943814755929
  H   2.98558691394445      3.65350504601840      0.20716954939140
  H   1.31594937868270      3.33914945834981      0.06835654774603
  H   4.61174573419672      1.99208572178110     -0.05141756800317
  H   5.41861649862036     -0.09881417403594     -0.02082295299922
  N   -2.99437004039107     -2.39995883891739      0.13518025094281
  H   -2.57761610711486     -3.28640127540342     -0.08474441953400
  H   -3.96999448826967     -2.29708330736017     -0.08064223040834
