27
Coordinates from ORCA-job ./opt_b97-3c_parallel
  N   5.84511009659892      0.66604253705300     -0.00279867035387
  C   4.68603563536141      0.60553233859002     -0.00247021106921
  C   3.26163136570772      0.52900755714671     -0.00150136661298
  C   2.61352562874450      1.76349054056474     -0.00121753703297
  C   1.23632142362728      2.05209951497832     -0.00020452844737
  C   0.25153531284955      1.11601770742156      0.00069231116217
  C   0.31916518475376     -0.38163884730004      0.00088388387392
  C   1.43173034973763     -1.22041412165970      0.00013468470636
  C   1.17623886596965     -2.62016872701764      0.00053886422574
  N   0.91550146540494     -3.75085307757933      0.00111697864600
  C   2.75608494952589     -0.79498978410335     -0.00095040834882
  H   3.50372762271375     -1.57422840636425     -0.00141247046349
  C   -1.07817078724106     -0.45342062525117      0.00195896528412
  C   -1.17786576089106      1.01924632102871      0.00179740379411
  C   -2.27057636999567      1.84069525533548      0.00214197685054
  N   -3.56437566308198      1.49809483818634      0.00331195051674
  C   -4.05072745339507      0.25129778162838      0.00404953785863
  N   -5.40114717181161      0.23488980433733      0.00558156464114
  H   -5.88104082007512      1.11750024369235      0.00653730934826
  H   -5.93229395590935     -0.61504514840593      0.00720777573864
  C   -3.43949285298180     -1.05583720308129      0.00340466870722
  C   -2.10991258911949     -1.38426012294060      0.00257169771935
  H   -1.85574832523393     -2.43731425558286      0.00234981110111
  H   -4.13833694829898     -1.88288321792232      0.00377885891527
  H   -2.10478945061845      2.91447450398124      0.00152736449701
  H   0.95797373204137      3.09904634579694     -0.00015070571741
  H   3.27100626091716      2.62201880166733     -0.00184663144021
