29
Coordinates from ORCA-job ./opt_b97-3c_parallel
  N   4.22249255673579      2.94398714924635     -0.03747157425542
  C   3.34957087500372      2.17131701419423     -0.02599457872627
  C   2.33438360278039      1.19471544761717     -0.01214678060443
  C   1.00675223563371      1.69052836232001     -0.01028355863602
  C   -0.12423729246637      0.94404813040307      0.00300148094755
  C   -0.30298841274780     -0.52562924532162      0.01737492633702
  C   0.61349741092502     -1.53343721076637      0.02123365890114
  C   2.00976460321809     -1.38675381593704      0.01198874292718
  C   2.75566950223214     -2.58247770022828      0.01749308192959
  N   3.41560619214706     -3.54331866264538      0.02133130456481
  C   2.78899588355785     -0.16572481095894     -0.00219736151434
  N   4.11880634761268     -0.33928678462378     -0.00720544256373
  H   4.74247170737915      0.45046648908305     -0.01683278303415
  H   4.51995113588446     -1.26208947106543     -0.00062993304670
  H   0.24357545546726     -2.55147541883250      0.03239171489007
  C   -1.71657528153656     -0.36357183377937      0.02300817839063
  N   -2.73482396169030     -1.17887851074627      0.02384217964645
  C   -4.00425150380214     -0.74216262875951      0.02538608918676
  N   -4.92536225395322     -1.75145245773454      0.07430238960390
  H   -4.57309119209620     -2.67508286632513     -0.10605312526112
  H   -5.87411761229069     -1.57422122320766     -0.19931900334013
  C   -4.51045701579321      0.58797392755468      0.02350766593619
  C   -3.87134000601256      1.80679775095224      0.00982263293514
  C   -2.49346889392924      2.10436787702658      0.00074623984806
  C   -1.54230598956571      1.13256848628891      0.00693910581063
  H   -2.20234288251083      3.14783329118663     -0.01094342817030
  H   -4.53242408070231      2.66486299351690      0.00644866330086
  H   -5.59308671340169      0.64555851307209      0.04174284012739
  H   0.91498228872162      2.76975938876993     -0.02005434163076
