31
Coordinates from ORCA-job ./opt_b97-3c_parallel
  N   5.34833525793697      2.03117587423015      0.05085733694727
  C   4.36923683887964      1.39758969661514      0.03644525049486
  C   3.23131967577432      0.57133069159086      0.01780809279619
  C   1.94721414132108      1.24209396371394      0.02586935516024
  C   0.75964240183361      0.62957366468561      0.00738045735946
  C   0.34898855029642     -0.78417051848909     -0.02278926501094
  C   1.17046745592855     -1.92375268336274     -0.03531572328565
  C   2.52784863419768     -1.91302634146743     -0.02722536287970
  C   3.47836192594412     -0.80549526148998     -0.00538516080310
  N   4.76463041912282     -1.22909254655812     -0.00879472059072
  H   4.98631995376159     -2.20526361279950     -0.02281204818020
  H   5.52739169830815     -0.57381644132166      0.00659484451309
  H   3.00227128827914     -2.88663371045960     -0.03999138716843
  H   0.68788929589549     -2.89388492926722     -0.05227425152013
  C   -1.00916651689191     -0.46485268536950     -0.02352966279824
  C   -0.66719022580509      0.97777617060581      0.01194696459195
  N   -1.30610506607645      2.08678590890169      0.03854846992961
  C   -2.68964898824731      2.09567980266145      0.02332530398899
  N   -3.14959407197324      3.37873177434341      0.07701835256470
  H   -4.10210682171560      3.58430940275044     -0.16121194835737
  H   -2.46956119724442      4.09506039366094     -0.10441474118145
  C   -3.60381508407388      1.05818630339905     -0.00954204041145
  C   -3.47144476753762     -0.35377468422320     -0.02275505241682
  N   -4.64847325570979     -1.05191492996870     -0.09418603472167
  H   -4.61930275622130     -2.04238285911392      0.08098199256257
  H   -5.48351161611431     -0.59749474982664      0.22768054921290
  C   -2.26958779146535     -1.08634090232754     -0.02045808215122
  C   -2.32800042420625     -2.49085990364757     -0.00315291990937
  N   -2.38449226478717     -3.65448635474263      0.01744722729410
  H   -4.63585279470120      1.39160177524095     -0.03442010379735
  H   1.97612850909133      2.32323960493545      0.04893947356790
