31
Coordinates from ORCA-job ./opt_b97-3c_parallel
  N   5.14098969795980      0.02852467932929     -0.00177928168202
  C   3.97502110597245      0.00000981983526     -0.00130425352566
  C   2.56755238770119     -0.00446846902114     -0.00088317998548
  C   1.96966743007144     -1.33622836780031     -0.00052812787584
  N   2.85444031659740     -2.35433737927537     -0.00019572144147
  H   2.53026188142017     -3.30547297805263     -0.00058603669921
  H   3.84552498805743     -2.19642293750402     -0.00121387918986
  C   0.60728694524762     -1.66609043325814     -0.00035044957567
  C   0.25688886786785     -3.02706485434896     -0.00018660841070
  N   -0.00815807684946     -4.16194682265295     -0.00003286626768
  C   -0.43259135447563     -0.71035082077186     -0.00024328934605
  C   -0.40889133350347      0.70230813336518     -0.00030988715908
  C   0.58931618555338      1.63772687675080     -0.00045378956810
  C   0.24825602492311      3.00507038955705     -0.00039106458653
  N   0.01702834046775      4.14608928556128     -0.00011016302954
  C   2.00158551191589      1.28836651409644     -0.00078721440287
  N   2.83257180653727      2.34306829190431     -0.00103722343011
  H   3.83091508076077      2.22386118859000     -0.00125340202352
  H   2.47101400014551      3.28087662806575     -0.00101037430140
  C   -1.90048898787621      0.73610755845108     -0.00001430535210
  C   -1.86033212484815     -0.70170163424475      0.00002690986259
  C   -2.92439103577036     -1.63054080922271      0.00029824524058
  C   -4.23886775540710     -1.26906294810877      0.00056216392636
  C   -4.85079208750297      0.02986582791880      0.00062780691107
  C   -4.28252004026921      1.26815377631895      0.00046116817611
  C   -2.90059949300342      1.64338707129718      0.00016576921069
  H   -2.66288040698709      2.69738071359484      0.00009241087318
  H   -4.97766898798058      2.09990880357267      0.00056939581566
  H   -5.93293601405681      0.01031909365061      0.00085427075129
  H   -4.94603144918076     -2.09054831179844      0.00075595415090
  H   -2.67975742658786     -2.68430012689940      0.00030147283448
