29
Coordinates from ORCA-job ./opt_b97-3c_parallel
  N   -2.39658509033736     -3.01194077531532     -0.12042477516458
  C   -2.14288342859054     -1.87628439372457     -0.09017382396421
  C   -1.86896616148392     -0.49163072569420     -0.04761773414605
  C   -0.55268510300569     -0.07390199433890     -0.00525079559182
  C   -0.01967092393539      1.34827611001498      0.01533899987213
  C   1.28435317616915      0.83618376909623      0.01307488017953
  C   0.77077531256845     -0.56155237789942      0.00283079096703
  C   1.48089679441106     -1.77294517017867      0.04084784393084
  N   0.84971874302784     -2.95787187389613      0.07228182251770
  H   1.42940834821205     -3.77830213872823      0.07141866889622
  H   -0.14895403026393     -3.06027361806107      0.03178984161350
  N   2.82767544612897     -1.90677200504258      0.05792718953400
  C   3.71848128597433     -0.92460596729653      0.04566326280080
  C   3.69512778133741      0.46588220643147      0.02084533861979
  C   2.58518859411489      1.32933313634368     -0.00071475686820
  N   2.79870872137449      2.67711797251666      0.00691457265216
  H   2.04888551307055      3.27383293681782     -0.29165649338415
  H   3.71637142000721      3.00656279698015     -0.23546517745516
  H   4.67266373482993      0.93321095003471      0.01508533484442
  H   4.73303288955391     -1.31964760691684      0.05360732067363
  C   -0.70850544609788      2.52938460032980      0.08708210825664
  C   -2.10264170010475      2.62779101693276      0.11234850137766
  N   -3.06091025102607      1.71409163080866      0.04571280526787
  C   -3.00975668198209      0.39231131810371     -0.05092608053875
  N   -4.24499522894547     -0.18964725834345     -0.20442176006417
  H   -4.37116092365078     -1.16154198749981      0.01825120489280
  H   -5.01396256575032      0.41736324362143      0.01916223809303
  H   -2.49340908585955      3.63760038113579      0.20117511568118
  H   -0.16908662394654      3.46752984366786      0.16046435480614
