30
Coordinates from ORCA-job ./opt_b97-3c_parallel
  N   -1.10949399613391     -3.95701459176130     -0.04203434989603
  C   -1.42157519346116     -2.83535531391342     -0.02322455045355
  C   -1.73389797572974     -1.45744148606614     -0.00014462375294
  C   -0.69906467433784     -0.51508943396485      0.01505917486474
  C   -0.85601672887902      1.00274516886267      0.04046569378416
  N   -1.82714843774108      1.84600883131108      0.04799561985244
  C   -3.13417850770554      1.44838388724351      0.03815227672791
  N   -3.99227183240450      2.52336795702894      0.09900029205658
  H   -3.57292963034810      3.40490416595578     -0.14109984176587
  H   -4.93406907412122      2.39614279265527     -0.22574550442631
  C   -3.67828319366491      0.16239205267015      0.02049496392684
  C   -3.08671303879031     -1.09732007604523      0.00314904492544
  H   -3.78249365832501     -1.92560838479335     -0.01167465234745
  H   -4.76245092364414      0.13968947977306      0.02948715753299
  C   0.57009607437414      1.13025076735473      0.04076614838831
  C   0.68466883665560     -0.34109793978239      0.01606451433655
  C   1.87967802380562     -1.11870127544264      0.01079177820529
  N   1.76731456706778     -2.46375820568221      0.00061336373379
  H   0.87702160463802     -2.93125466116907     -0.00346499921521
  H   2.58455506147431     -3.04468081386062      0.00370096941266
  C   3.15288789048120     -0.55973855778253      0.01712625835272
  C   3.59371441359700      0.78960777832661      0.02969647943744
  N   4.96458393398107      0.92617177805395      0.08159301431267
  H   5.34364713789642      1.82595746887254     -0.15461076503643
  H   5.52262557304288      0.15478047763589     -0.23876616493506
  C   2.86593029115062      1.98613441606784      0.04226023112963
  C   1.48104549873407      2.14328214701072      0.05436339750074
  H   1.09353082410144      3.15519298773797      0.06781618404363
  H   3.45624635741757      2.89404008082077      0.05559521681097
  H   3.95871819946870     -1.28629807761774      0.03445816969336
