32
Coordinates from ORCA-job ./opt_b97-3c_parallel
  N   -0.26410950169303     -4.48803704025383      0.06577873831840
  C   -0.73902939003489     -3.42656103683871      0.04883806373465
  C   -1.29967910651506     -2.12656384848014      0.03150592395416
  C   -0.45798263452961     -1.02544358407975      0.00200648063286
  C   -0.82472573520865      0.45302681382529      0.00641348352398
  C   0.54392881197907      0.77081187714649     -0.02611868625505
  C   0.89559114671172     -0.67168576627563     -0.02782004064824
  C   2.17304444254954     -1.26739976165147     -0.10278905505468
  N   2.30936719624007     -2.59436851269999     -0.28538490275660
  H   3.23858864814345     -2.96790563867596     -0.20960153863066
  H   1.53413891363681     -3.23299829077252     -0.23838051133463
  N   3.32874367947589     -0.61040633909187     -0.01550083459981
  C   3.50511314796934      0.71476322102398      0.09303759576579
  N   4.79709379839161      1.02802661611677      0.36829899082917
  H   5.48457848125553      0.30014351288716      0.31276064047255
  H   5.07874805104146      1.98782877635785      0.29787768881290
  N   2.74395780465053      1.80872515998831     -0.03754345074652
  C   1.41435373524029      1.87423632240137     -0.12625488251454
  N   0.95108070339807      3.12183810903956     -0.34526013212650
  H   -0.02358782607413      3.35509774324694     -0.28151365374505
  H   1.62025358805806      3.86635352221183     -0.26290644382218
  C   -2.06611242882819      1.06923244110835      0.06573801673408
  C   -2.10742486622469      2.48091693823591      0.10550792446343
  N   -2.17891630956938      3.64200237697685      0.13577176782524
  C   -3.33463590180423      0.41143156841183      0.08862017567259
  N   -4.45550860438168      1.20666871762205      0.19783405125412
  H   -4.37998931972542      2.17637243699716     -0.05847326626759
  H   -5.33036017702134      0.78867591620974     -0.06325248651419
  C   -3.55557434984395     -0.97311788343322      0.07263207793533
  C   -2.70678826484937     -2.05816799507844      0.05275753615645
  H   -3.20357065256368     -3.01896830496801      0.05502195972710
  H   -4.60521696967413     -1.24434261170791      0.09956827530345
