25
Coordinates from ORCA-job ./opt_b97-3c_parallel
  N   0.38404616241241      4.01162287553597     -0.01173044867149
  C   0.78338419303858      2.91983622421268     -0.00377190797444
  C   1.21866759045178      1.57506415237762      0.00538341665350
  C   0.24700269634289      0.54648450048427      0.00853426275087
  C   0.47694181808905     -0.91091898851709      0.01552118553456
  N   1.46403928871493     -1.72176539261444      0.02281166608421
  C   2.77046690881703     -1.24453169431742      0.02403620919125
  N   3.64843651219906     -2.27846341724410      0.06378930323620
  H   3.27970747488274     -3.20097462525673     -0.07788086873765
  H   4.62865044689314     -2.13244618227411     -0.08830073589743
  C   3.24157105322411      0.06054113255390      0.01343869338133
  C   2.57325400475591      1.29650866500974      0.00763708270911
  H   3.22575300380758      2.15940575924581      0.00157289634857
  H   4.32212424428265      0.14351480937258      0.01669616476755
  C   -0.99287355456266     -1.11720348517529      0.00849422883265
  C   -1.13560647156766      0.34160079167869      0.00266996801531
  C   -2.33548654060063      1.11133534871117     -0.01119022911483
  N   -3.55612022863843      0.67743713162241     -0.01575963581111
  C   -3.96201577258156     -0.65331545873414     -0.00699080337459
  C   -3.30906262974377     -1.84384122566390      0.00104301999180
  C   -1.89028291719827     -2.10890204657587      0.00753803713117
  H   -1.55689688650987     -3.13825060249677      0.01320034944536
  H   -3.95183263615457     -2.71630401838885      0.00398088282507
  H   -5.04407737909389     -0.72228488040923     -0.00878240252338
  H   -2.22515924616055      2.19345388946312     -0.01999601799359
