25
Coordinates from ORCA-job ./opt_b97-3c_parallel
  N   5.72738373114324      1.09083107858436      0.00407236282656
  C   4.63694127138548      0.68882387707090      0.00299024756911
  C   3.32621323738139      0.15283064985137      0.00151888947691
  C   2.27595171969037      1.03034289490318      0.00074723342039
  C   0.93514000148705      0.61763439991641     -0.00027958833278
  C   0.40675322737553     -0.75084751120302      0.00055059911623
  C   0.98120051515880     -1.95953019369209      0.00142351586621
  N   2.35279842533346     -2.20740124423542     -0.00010520020663
  C   3.29310626511870     -1.33738504428305     -0.00012993728128
  H   4.29458284906125     -1.76178748687636     -0.00185764565762
  H   0.37379011533386     -2.85427824093646      0.00262189781918
  C   -0.94651004099496     -0.16422024623297      0.00052156528709
  C   -0.35137929096096      1.17400518946350     -0.00035135298852
  N   -0.86451227379187      2.41227936749238     -0.00017289367778
  C   -2.16261139282889      2.57848528657121      0.00037687129196
  N   -3.23200423499176      1.74147230948722      0.00030955441334
  C   -3.31995065153121      0.43670858324031      0.00050078156252
  N   -4.56238672976127     -0.07134247877489     -0.00013046323731
  H   -4.74647768251793     -1.05911334183403      0.00015106031784
  H   -5.33250395756181      0.57460231458840     -0.00057190123139
  C   -2.23284514057150     -0.57522603879927      0.00128886273193
  C   -2.56385690275892     -1.94618633164964      0.00233909100873
  N   -2.90144624423395     -3.05893469585799      0.00322992237866
  H   -2.47516133763290      3.61706780346415      0.00078876888660
  H   2.48758150356876      2.09218770074176      0.00121270083996
