25
Coordinates from ORCA-job ./opt_b97-3c_parallel
  N   1.43784613921989      2.58668579914875     -0.00061018135322
  C   1.71307995424644      1.26772780172850     -0.00069489357796
  C   0.62011103905683      0.39548575003694     -0.00076593385091
  C   0.52458073055248     -1.07648958524570     -0.00079171883602
  C   1.50732810495290     -2.03037372998167     -0.00069644587683
  C   2.87586400319292     -1.74435106309435     -0.00056457223920
  C   3.50807426226747     -0.49745194009019     -0.00054464798100
  C   3.04876489150538      0.81343831439300     -0.00062166905306
  H   3.81180349835592      1.58328540117834     -0.00056101590697
  H   4.59110003395659     -0.56605445171884     -0.00045728405441
  H   3.54215963366978     -2.59710537361447     -0.00048418305038
  H   1.21323940959270     -3.07413609501977     -0.00072933570680
  C   -0.90590957281479     -0.99410760541363     -0.00097563302087
  C   -0.77102018051733      0.52578537052677     -0.00092331468960
  N   -1.60426481476822      1.54343637275621     -0.00099740808705
  C   -2.92472025385397      1.34684254674895     -0.00116341023999
  C   -3.68162633650171      0.15438930380078     -0.00129969411084
  C   -3.32711240887041     -1.18152043405622     -0.00130715880657
  C   -2.02778284586890     -1.75039061735824     -0.00115025714837
  H   -1.95179080280503     -2.83261408648583     -0.00117849073549
  H   -4.14995205619214     -1.88593893680140     -0.00144204991579
  H   -4.75098321791932      0.33777702723008     -0.00142343566577
  H   -3.50503883151947      2.26291769606804     -0.00119748553479
  H   2.16442702081685      3.27748954053955     -0.00115876525602
  H   0.47579758094515      2.88779049022441     -0.00102219760209
