31
Coordinates from ORCA-job ./opt_b97-3c_parallel
  N   6.39027158939351      1.07353387706992      0.00110802589879
  C   5.24684163395068      0.87719300386442      0.00075784191724
  C   3.83935524614732      0.64565361765793      0.00046729241204
  C   3.07065775933201      1.83041652713304      0.00066489154838
  N   1.74491712398690      2.00266300468076      0.00053042872964
  C   0.91810129858984      0.99511406941165      0.00016748931669
  C   1.02174768003876     -0.52815516442137     -0.00014417848619
  C   2.18173789580530     -1.27497011211361     -0.00018043292391
  C   2.09420766250284     -2.69238891908997     -0.00047134951630
  N   1.96534081337631     -3.84645712715258     -0.00076713981361
  C   3.47040157212096     -0.70611132515983      0.00009848865141
  H   4.28972697749146     -1.41000692922963      0.00004530894188
  C   -0.38799599743051     -0.58800379501067     -0.00029587941427
  C   -0.47683974779921      0.88475721747101     -0.00000350250536
  C   -1.50745694326931      1.82200522672862      0.00023845752560
  N   -1.18283354310575      3.11949126293918      0.00058962211437
  H   -0.20955860606184      3.38500413233018      0.00074514678929
  H   -1.88895930148604      3.83605766913313      0.00084363803942
  C   -2.87792296376671      1.41531197148166      0.00010422374574
  C   -3.83213570808500      2.45829246297531      0.00042164947715
  N   -4.55086286778713      3.37246850257295      0.00070524167231
  C   -3.36119733695144      0.10873769073443     -0.00029805985266
  C   -2.79021462429405     -1.16702002026615     -0.00066145220867
  C   -3.71357238869944     -2.24013217378550     -0.00099930526564
  N   -4.41578274102646     -3.16709139095527     -0.00124017263125
  C   -1.40565769291165     -1.55580417008406     -0.00068245262231
  N   -1.11689194905851     -2.85992981128259     -0.00105855197738
  H   -0.16966898860936     -3.20161908610369     -0.00104856845159
  H   -1.85286484115008     -3.54720136347269     -0.00123811029277
  H   -4.44290620711412      0.07028138054145     -0.00033657657685
  H   3.63859648857072      2.75129135710198      0.00099455995877
