30
Coordinates from ORCA-job ./opt_b97-3c_parallel
  N   -1.83794267780852     -3.84449068742556      0.01949553873196
  C   -1.79810974144668     -2.68196134283167      0.00083467926133
  C   -1.78448912509507     -1.27106892429974     -0.01301365138787
  C   -0.58923098819064     -0.59996023100380     -0.01462884577901
  C   -0.34369729200077      0.90670842933712     -0.02652924295489
  N   -1.11817068997404      1.96536144772285     -0.00763741950915
  C   -2.45520789317067      1.81267102252331      0.02377529579786
  N   -3.13575037080351      2.99696113336773      0.12485227405878
  H   -4.11074550711136      2.97259153037421     -0.11146483700993
  H   -2.62481908575524      3.82722954813697     -0.11403181262220
  N   -3.26284134166014      0.74589193161298      0.00234032919900
  C   -3.03901858900076     -0.55491540781799     -0.02627318476379
  N   -4.16837661008610     -1.31427212305025     -0.10945171474759
  H   -4.13074552500619     -2.30078226009140      0.07651675091085
  H   -5.03402115646677     -0.83952171727153      0.07190103360747
  C   1.02573582378173      0.66671830920075     -0.04142179488313
  C   0.80362137273155     -0.80486112660849     -0.01678127316182
  C   1.73446420859985     -1.80790133887940      0.00217658067945
  C   3.10622849228627     -1.57895361762507      0.01093287226781
  C   3.81603806609218     -0.34709396265484      0.01558044006320
  N   5.17020783763356     -0.46850510875467      0.05095179285520
  H   5.61506758692955     -1.35110935453028     -0.11652433293004
  H   5.70605601287426      0.37072707192422     -0.07724872168980
  N   3.46013101785468      0.95568217484954      0.01702379984748
  C   2.21019623522538      1.41851810702406     -0.00652206068931
  N   2.08572810195626      2.76038492804729     -0.01328588855379
  H   1.17259674300531      3.17684680550914      0.05782888582935
  H   2.90866195105654      3.32192462338425      0.11074304665474
  H   3.73603332079504     -2.45915778722053      0.03138517077074
  H   1.39866886865445     -2.83763686424914      0.01412571204712
