31
Coordinates from ORCA-job ./opt_b97-3c_parallel
  N   -3.98329940157465     -2.37311842926927      0.01687954008836
  C   -3.08333313883261     -1.31079887224285      0.02345939022548
  C   -1.70572083765324     -1.70741220042769      0.00137443185215
  C   -0.66492742012749     -0.85633094743833      0.00391428567181
  C   -0.59413974121526      0.63426597748062     -0.00141200788572
  C   -1.62682633978020      1.55896270947634     -0.08306981679185
  C   -2.97878342096678      1.24986183391305     -0.08880108318992
  N   -3.88568284370264      2.31913478857669     -0.10621479545001
  H   -3.48928939935064      3.18524252404689     -0.43271147245444
  H   -4.74667224217581      2.12357557591286     -0.59155620062482
  C   -3.59128787826231     -0.03001908607922     -0.00194714472064
  H   -4.67543131687284      0.01746763685355      0.04991655129447
  H   -1.37090699838089      2.61079049350877     -0.16932640951968
  C   0.80552827288443      0.56173848634112      0.01237206599650
  C   0.78790419996018     -0.90762612169023      0.00845762618007
  C   1.77124149286844     -1.83332387606138     -0.02015787185055
  N   3.11244094686523     -1.61997401572122     -0.08546319801674
  C   3.69892871486367     -0.43719107008184     -0.03464223763842
  N   5.07435982589498     -0.52884416818372     -0.07501863710918
  H   5.59178629077269      0.25186030898480     -0.43875913200457
  H   5.40709461591493     -1.43681315306356     -0.35336618859625
  C   3.22675858765886      0.91251518586745      0.10966324174468
  C   1.93195756557766      1.39907198219243      0.10692916755644
  N   1.71419075022023      2.75776591431696      0.17230815263468
  H   0.82854946900818      3.03196314183825      0.56164151320119
  H   2.47949225971962      3.31462639749227      0.51383620782300
  H   4.00924224986954      1.65386804738205      0.23019043277930
  H   1.49659566350284     -2.88430253746961     -0.02064451705581
  H   -1.50389016049783     -2.77315943929763     -0.01473818308366
  H   -4.92088815999743     -2.14816365988055      0.30518036015811
  H   -3.65260119279089     -3.21532275617716      0.45741759048614
