21
Coordinates from ORCA-job ./opt_b97-3c_parallel
  C   -3.53893931065104      0.00310923950126      0.00301158624561
  C   -3.01097999412651      1.26148761485970      0.00278489385985
  N   -1.68935346301831      1.68654686049993      0.00226683750992
  C   -0.78007173449652      0.78848940543184      0.00209120298555
  C   -0.73221573909867     -0.72579493967317      0.00231915388129
  N   -1.68060064336083     -1.66743042634997      0.00255651683011
  C   -2.93950050480367     -1.30487307289270      0.00284357229408
  H   -3.64726394005711     -2.12770738978132      0.00299334963736
  C   0.66141019282221     -0.68514470471167      0.00191711040224
  C   0.68459088658758      0.78815171318593      0.00163344909600
  C   1.70898776681512      1.65823365503489      0.00113697031052
  C   3.07597001280591      1.22495441806863      0.00089709956615
  C   3.58048863661398     -0.04264723973675      0.00097646684256
  N   3.02567903401043     -1.30993066046026      0.00091450380818
  C   1.75507271827431     -1.58639787414484      0.00133099087517
  H   1.51186855225570     -2.64679531769019      0.00114767860034
  H   4.66389510057021     -0.09879217946352      0.00091983825957
  H   3.82202457870432      2.01048364145721      0.00071052799529
  H   1.50522269437483      2.72132610417066      0.00101014524137
  H   -3.71393008844181      2.08524735873623      0.00300031947837
  H   -4.62302830068010     -0.02315268174187      0.00337838318039
