30
Coordinates from ORCA-job ./opt_b97-3c_parallel
  N   -6.26825663256332     -1.32994869034311      0.00059737414032
  C   -5.13807369420955     -1.06704217415605      0.00071325071318
  C   -3.74483910320294     -0.75925785555663      0.00048812920692
  C   -2.89928794583635     -1.89552803459178      0.00061680278950
  C   -1.51685910497344     -1.96460440021201      0.00051003339742
  C   -0.66232163966337     -0.88191987167605      0.00026986655157
  C   -0.98202699044917      0.58225431898169     -0.00021477860636
  C   0.40989619008308      0.87502902403239     -0.00051565662193
  C   0.70937321489425     -0.55910674800789      0.00000400352427
  C   1.95092138100580     -1.20395479945235      0.00069348313013
  N   1.98865497583850     -2.54987940462250      0.00158690731999
  H   2.85928501285969     -3.05233906027742      0.00313886799680
  H   1.14253062472139     -3.08384591922970      0.00398462289529
  C   3.17515524824363     -0.48363040635510      0.00019671867688
  C   4.33520596746064     -1.27604222166626      0.00116166618734
  N   5.28741649784605     -1.94946692120931      0.00184867726841
  C   3.38277709368701      0.94939175398401     -0.00154436687230
  N   2.55084889369874      2.00230416396085     -0.00188121459114
  C   1.22411054537615      1.97943867541463     -0.00125150859657
  H   0.75953092545140      2.95961927450479     -0.00146307877488
  N   4.66981882691225      1.34784598188105     -0.00288559531242
  H   4.83747690435160      2.33796708912925     -0.00364900108385
  H   5.44565530240694      0.71020107178950     -0.00285105194787
  C   -2.18854468358338      1.23694295228835     -0.00028781297634
  C   -2.16819809205402      2.65937890958880     -0.00083656861518
  N   -2.12948142001715      3.81882052429823     -0.00178438881447
  C   -3.45162686708989      0.60124937523768      0.00011987316462
  H   -4.30409000552133      1.26465204705771      0.00008409251302
  H   -1.09781116415328     -2.96484672375720      0.00050050817940
  H   -3.42025007601992     -2.84262622543554      0.00081143935824
