26
Coordinates from ORCA-job ./opt_b97-3c_parallel
  N   -0.89384025378912     -3.77360128681898     -0.00315130194972
  C   -1.00898235713748     -2.61377518616478     -0.00180632375202
  C   -1.19426655334681     -1.22268741052223     -0.00016544890934
  C   -0.08126652149848     -0.35706636825671      0.00026510274796
  C   -0.05839281090162      1.09628257225521      0.00199823973629
  N   -0.91557726371288      2.04758791920424      0.00357486138725
  C   -2.27488918516798      1.70563735718758      0.00380406202154
  N   -3.02418551510344      2.82265953693778      0.00550275575134
  H   -4.02465841310567      2.75255712754302      0.00564538376015
  H   -2.57142080329273      3.71707670421720      0.00611272751167
  N   -2.93146460332379      0.57559234996510      0.00278714243723
  C   -2.50735959059744     -0.71272178616442      0.00105812107441
  N   -3.54217968986896     -1.58054990669427      0.00036655260138
  H   -4.47259155215459     -1.20900752726471      0.00213782014126
  H   -3.40013579531815     -2.57428244611540     -0.00009529800833
  C   1.43802886160859      1.06655497939669      0.00124237538012
  C   1.32262641948637     -0.38077143032887     -0.00042549117472
  C   2.37742116515384     -1.35609749448328     -0.00197061246728
  N   3.64793135615243     -1.13677362856432     -0.00231147902047
  C   4.28764172717713      0.10565242267173     -0.00127323488500
  C   3.84229585318746      1.38536630201477      0.00045454360379
  C   2.48859080527172      1.89468735697935      0.00174113628593
  H   2.33762580836190      2.96520750904149      0.00309829073915
  H   4.62448013702327      2.13630341015873      0.00091623950082
  H   5.36393227484617     -0.01715620780462     -0.00199862484191
  H   2.07842338745029     -2.40208471179029     -0.00294790697149
