31
Coordinates from ORCA-job ./opt_b97-3c_parallel
  N   5.50668856559332      0.86020964566802     -0.02231114031462
  C   4.35193167991531      0.72936029476754     -0.01583529063546
  C   2.95026294444675      0.50347705276712     -0.00308970559399
  C   2.18959830016475      1.67956210557786      0.01015521163559
  C   0.80958980455300      1.88428183329625      0.02727688891911
  C   0.37759519902538      3.23436008244490      0.05713095920050
  N   -0.00978548275616      4.32965604405594      0.07861428490233
  C   -0.14704834170945      0.87491585718863      0.01951760818049
  C   0.06886555962871     -0.62828142883846      0.01622109332659
  C   1.23159975859480     -1.36938076850687      0.03573407223559
  C   1.10965675475695     -2.77729758093777      0.10184046466031
  N   1.04365086382376     -3.93644155211774      0.16341129200351
  C   2.57699231669035     -0.86798717924633      0.00470268976038
  N   3.57116448365108     -1.79147903920426     -0.04350464199339
  H   3.37494778992900     -2.76644613255532      0.09087326639375
  H   4.52991277086082     -1.50542537944837      0.04718151867893
  C   -1.33196780199258     -0.81315292447220      0.02908926254452
  C   -1.52408670439845      0.66284452747840      0.03582107748137
  C   -2.74259966310007      1.38836433213897     -0.02347656211840
  N   -2.75006238505753      2.71306565438568     -0.20611155815258
  H   -1.91688435151091      3.27760111633225     -0.22865504659683
  H   -3.64558585566691      3.17000835234766     -0.17934507772112
  N   -3.96066730710902      0.84566459612388      0.09419365113093
  C   -4.25929479738536     -0.44875676071338      0.20489367289497
  N   -3.63738915835978     -1.60484224466073      0.09645145811296
  C   -2.30619684416846     -1.81512851355765     -0.05315988357505
  N   -2.01406701965350     -3.10372041075406     -0.28794333616243
  H   -2.77765288879613     -3.75376772773400     -0.21869561743854
  H   -1.07626941349672     -3.46277320077232     -0.31168837593442
  H   -5.31966823369613     -0.58611642177310      0.40423552729233
  H   2.78200946962322      2.58288069381939      0.01095384248266
