26
Coordinates from ORCA-job ./opt_b97-3c_parallel
  N   -4.12311264176727     -1.39561037797626     -0.16275847212543
  C   -3.09062188895660     -0.50419062831266     -0.04740019965279
  N   -1.87036921262573     -1.10964582361204     -0.02676550009328
  C   -0.78456957670311     -0.39789709775082      0.00059054122640
  C   -0.47267115582846      1.10287667063300      0.01340272898066
  C   -1.38295939984860      2.12589844118040      0.04136678361087
  C   -2.76371046878889      1.88969514616225      0.04215611257321
  N   -3.47799177951037      0.77125894200017      0.00250494791624
  H   -3.38465096619294      2.78108215449380      0.08622837469972
  H   -1.06780676023855      3.16359897839994      0.08357401693818
  C   0.89123644130055      0.77666246190245      0.02898819303195
  C   0.59633372849591     -0.67168922406490      0.02140681048655
  C   1.44606663108726     -1.76178728105176      0.02438091671718
  N   0.94515832069094     -3.01142895406624      0.02729345636905
  H   1.58547828812407     -3.78000616432031     -0.05693137900353
  H   -0.04447148045862     -3.16226665039220     -0.06049272014947
  N   2.80536930259815     -1.70024318326591      0.03862283398205
  C   3.52261076807337     -0.58900806121056      0.05031463638496
  N   3.32908096448196      0.73540079804868      0.03579809847530
  C   2.15079444115120      1.38302069405509      0.02069183164345
  N   2.25852955005450      2.73024209993600      0.01780371920462
  H   3.17730189634202      3.11268289592705     -0.12353849882498
  H   1.46328780344884      3.30664882117975     -0.18506583892813
  H   4.58706972946946     -0.81417527601805      0.06965112557757
  H   -3.92681906228157     -2.35256968122121      0.06696385862689
  H   -5.03756012441753     -1.04420237045563      0.05571388213275
