35
Coordinates from ORCA-job ./opt_b97-3c_parallel
  N   -6.06214996970065     -0.00722776187955      0.11414755217541
  C   -4.90117861636709      0.07823752729298      0.07672565000729
  C   -3.49730007395532      0.21409543861011      0.02774342096084
  C   -3.05819083636151      1.55955576536292     -0.00162474771931
  C   -1.71834632405409      2.02875425736223     -0.01240730037321
  C   -0.61215366500698      1.26059557626370     -0.00741157581212
  C   -0.40138237331902     -0.21861082640677     -0.01335015237598
  C   -1.37534313688829     -1.22669598632855     -0.04243356930131
  C   -0.95007157760807     -2.56612353419462     -0.12451906395030
  N   -0.61844279014804     -3.68073645521073     -0.19900733499741
  C   -2.78077287279588     -1.03138631304400     -0.00231688225307
  N   -3.55365042645190     -2.15497565804663      0.05962497790844
  H   -4.53693660866414     -2.09521269458921     -0.13568861998430
  H   -3.13158633298365     -3.05135581651935     -0.10506450826930
  C   0.98863562448343     -0.00920060795991     -0.01572867756283
  C   0.80586324961260      1.45759022270336     -0.01065255104340
  C   1.66419224763846      2.50521521148844     -0.03496761037238
  C   3.06028718838890      2.40748017067685     -0.05896958680785
  C   3.85715639683457      1.26870244584544     -0.04725877220642
  N   5.20227096117444      1.48297901466701     -0.14244437139337
  H   5.54818289107509      2.41499239631881     -0.01082862879890
  H   5.85212009056449      0.74046943846720      0.04838476158686
  C   3.48319300559598     -0.13687436899871      0.02907937380999
  C   4.55561394631160     -1.03961094428380      0.10706172548934
  N   5.43601986155957     -1.80385939503034      0.17474662612940
  C   2.20156766688967     -0.74699534114287      0.02928452196574
  N   2.14217290251167     -2.08593395960961      0.09834687604979
  H   2.98263882409284     -2.63860664325539      0.10296681997388
  H   1.27038865683806     -2.58351961020549      0.06484177042729
  H   3.60035521471590      3.34437798406584     -0.11399805499766
  H   1.24544389122641      3.50523177830620     -0.03967513099885
  H   -1.58442216822710      3.10450318130453     -0.03022089999545
  N   -4.00264802814066      2.54046079775845     -0.04929687776206
  H   -3.72630094933069      3.48370069869713      0.14771706667009
  H   -4.97239136261058      2.32380648991435      0.10312147072109
