28
Coordinates from ORCA-job ./opt_b97-3c_parallel
  N   -4.76376221967620     -0.91562987143927     -0.00684093318289
  C   -3.41014644852631     -0.67282996642588     -0.01310979260578
  N   -2.69570067636437     -1.78492864024845      0.00724637907919
  C   -1.34224022229700     -1.84939166489266     -0.02908635619697
  C   -0.46451785105518     -0.82053658382560     -0.01007115915277
  C   -0.64090126045927      0.63351518776494      0.02255502876083
  C   0.73668536499355      0.86197469357591      0.05926611126675
  C   0.97552011686595     -0.60934418704769      0.02119513166212
  C   2.11167607109337     -1.32411452619465      0.01883896238372
  C   3.42955601647686     -0.72902879388920      0.02952739436862
  N   4.46531463946651     -1.63541760510146      0.00671151896863
  H   5.36734336624520     -1.22930941435809     -0.17697626003715
  H   4.30399529847546     -2.53645213429640     -0.40717028731908
  N   3.80229347706865      0.52687945531517      0.10016902856247
  C   3.05393429941386      1.64818691807287      0.18571155299968
  C   1.69424152799526      1.87038373750912      0.15606522921196
  H   1.38070297544674      2.90587160034463      0.23748121648656
  H   3.66856335727626      2.53852111972742      0.27883494829137
  H   2.05337743452341     -2.40720400029772      0.00449083630359
  C   -1.85623339214081      1.35231961772647     -0.05527238312623
  N   -1.77976241543182      2.72046889731982     -0.06138554277573
  H   -2.59191085947943      3.22910744584643     -0.36547938310347
  H   -0.91114123941685      3.11861737242108     -0.37161155080886
  C   -3.08517074185901      0.72584144414944     -0.09465430955302
  H   -3.94369252706127      1.38154015061386     -0.19175029732355
  H   -0.95305883369706     -2.86307992891820     -0.05171767606126
  H   -5.38269892401570     -0.20668382203621      0.34365929685095
  H   -5.00849376366082     -1.86491710071575      0.21883135215037
