29
Coordinates from ORCA-job ./opt_b97-3c_parallel
  N   4.80693064112808      1.58664636276441     -0.00425704145858
  C   3.84408635500948      0.93037088053510     -0.03016634531851
  C   2.63664986461146      0.20287873301599     -0.04996485893981
  C   1.43633781545057      0.97892701614574     -0.00727922393174
  N   1.54144681412053      2.33288008706302     -0.00651679799284
  H   0.74606018599320      2.87410666735798      0.27412306852876
  H   2.44109571635034      2.75263995652687      0.15813312791055
  C   0.17828602028936      0.39134376265828     -0.01116346710523
  C   -0.26587304697203     -1.01581789108683     -0.01174214256748
  C   0.44084139544190     -2.20443508042405     -0.02520323118239
  N   -0.22661355507043     -3.39961323864891     -0.04169882355526
  H   -1.17686134462380     -3.40269887765898      0.28169970849898
  H   0.29334685613068     -4.22163217191916      0.21064726764759
  C   1.85651494852646     -2.24170093959706     -0.07799085507516
  C   2.75357566901891     -1.20147198882127     -0.08733052340318
  H   3.78660681797818     -1.52699705874782     -0.11641084505407
  H   2.29834976463390     -3.23051438665006     -0.10886815570356
  C   -1.62592554789180     -0.60006442658051     -0.00069561677687
  C   -1.17019289496605      0.83257410132080     -0.00026893653537
  C   -1.91110609572634      1.98662435366700     -0.02383657788609
  C   -3.30769833135015      2.04993866430759     -0.02708136372227
  C   -4.23686138010651      1.00952223695572     -0.02424001642520
  C   -4.07460717255357     -0.37131058395346     -0.02865835884418
  C   -2.88974874711803     -1.12167147683517     -0.02698913842847
  H   -3.01122546750629     -2.19976960973064     -0.06184425576958
  H   -4.99174616132697     -0.94693273177779     -0.04231295837559
  H   -5.27073305279004      1.33701099713600     -0.03009721956204
  H   -3.72981219448618      3.04702972881852     -0.04119514921056
  H   -1.39515606679481      2.94100742015872     -0.05639989266189
