29
Coordinates from ORCA-job ./opt_b97-3c_parallel
  N   -1.78081696032061     -3.62818780792554      0.00048218192965
  C   -2.08287103881022     -2.50555339154317      0.00132140640528
  C   -2.40267982622406     -1.12389535521543      0.00243166662305
  C   -1.38378827568604     -0.18379102623530      0.00243215610576
  C   -1.53925220754204      1.33819695309098      0.00342291280658
  N   -2.52533531281497      2.18001393054908      0.00454084732346
  C   -3.80656849996082      1.76315980657222      0.00509335000968
  C   -4.35237659275680      0.48168679875071      0.00462342452674
  C   -3.77011599421564     -0.78123596364485      0.00346242788576
  H   -4.45606771376374     -1.61755457690725      0.00333141923291
  H   -5.43624887974717      0.47289816116866      0.00528127970329
  H   -4.52302517434268      2.57665485166946      0.00605534150542
  C   -0.12755577875662      1.45823298512925      0.00259478931503
  C   0.01436878611537     -0.00577445087291      0.00168297961340
  C   1.18545752755701     -0.78882600315497      0.00060736071537
  N   1.08152009643198     -2.12527154510945      0.00006736533413
  H   0.18912513102909     -2.58974778313901      0.00029551350028
  H   1.89931641842682     -2.71042788712343     -0.00078608132678
  C   2.50139323401322     -0.22751474108974      0.00009062884876
  C   3.54447703527951     -1.16995992927190     -0.00094732126126
  N   4.41075989197327     -1.95120012567369     -0.00182918372830
  C   2.92256667007423      1.14607618637386      0.00042046668090
  N   4.26226171563503      1.34406153540398     -0.00038696176708
  H   4.63562112721491      2.27352336209546     -0.00018530237356
  H   4.91478851461259      0.58040463165231     -0.00117078927979
  C   2.15474033087014      2.33177579308729      0.00148483051141
  C   0.78482076313098      2.48301309138166      0.00249984470253
  H   0.39175943640466      3.49224834254535      0.00326717739555
  H   2.73700130407260      3.24462484833637      0.00151147286180
