30
Coordinates from ORCA-job ./opt_b97-3c_parallel
  N   -5.53846873763663     -1.29072225221059     -0.01648863884095
  C   -4.39304533862120     -1.08651417130936     -0.01746696033090
  C   -3.01258533304244     -0.77203239299975     -0.01758001592318
  C   -2.16949926093755     -1.93262489831438     -0.02566941456380
  N   -0.86664755444446     -2.08620435089266     -0.03404742596085
  C   -0.06258887540938     -1.02683440548689     -0.03525671004070
  C   -0.27015095386211      0.46532312083117     -0.01520025825754
  C   -1.40712475593710      1.20549020930216     -0.00187043209519
  C   -1.30639220541043      2.61743577050747      0.01857470358223
  N   -1.26087311310895      3.77827097600209      0.03523324066489
  C   -2.73480252187053      0.61301013586887     -0.00692266916902
  N   -3.76160833214766      1.48811328391500      0.00091462775903
  H   -3.59892456300146      2.47872499755745      0.01302983343746
  H   -4.71376935467266      1.16676016881120      0.00324109822263
  C   1.15866351112908      0.63734385291056     -0.01061901825972
  C   1.30561173525404     -0.82185200404068     -0.03397657479194
  C   2.48379676943090     -1.60984652122447     -0.00381918602113
  N   2.29687041766076     -2.94776509927148     -0.02354401091332
  H   1.35950025650155     -3.31137760024731      0.02536294571720
  H   3.06097288390218     -3.58572376237991      0.09797885558990
  C   3.73824588003644     -1.03606682574673      0.03716257901818
  C   4.10083792035983      0.35355694866497      0.02139234526508
  N   5.44706521641461      0.56677343210915      0.03991501556472
  H   5.74337732997703      1.51750188064057     -0.09537893977753
  H   6.09355957536940     -0.16528252351828     -0.18749177784709
  N   3.42144758374542      1.50043219995631      0.02210151509873
  C   2.08413437242239      1.63449045618101      0.02575674648579
  H   1.74035710128915      2.66289379477578      0.05195362822178
  H   4.57406398978171     -1.72540657681442      0.07994779244979
  H   -2.72887214197203     -2.86133847987687     -0.02592557948456
