29
Coordinates from ORCA-job ./opt_b97-3c_parallel
  N   -5.37491971851216     -1.55510129086291      0.04276981583006
  C   -4.42709199927382     -0.88278002983116      0.03056596645563
  C   -3.29410306871884     -0.02794362526128      0.01554204127960
  C   -2.06693888584801     -0.63394776632524      0.02337020291644
  C   -0.83948789174884      0.06147287562126      0.01191361115561
  C   -0.59215433927094      1.49950402763593     -0.01484785402760
  C   -1.37964228085135      2.58000099125207     -0.03189919667495
  C   -2.82533804330897      2.49098763929028     -0.02639461188150
  C   -3.62293041285619      1.40333777418649     -0.00640829895221
  H   -4.68737066241659      1.59538573131127     -0.00696347014641
  H   -3.34319164030028      3.44256436088200     -0.04146026055146
  H   -0.93077974559036      3.56371148017816     -0.05193845792732
  C   0.86255171397768      1.16762813644738     -0.01707919710871
  N   1.91478651964216      1.89792693479958     -0.04012647855937
  C   3.16799116315529      1.29813898894557     -0.02318495989229
  N   4.13479179393701      2.25178019067383     -0.06915844915641
  H   5.09209175164626      2.02579940813692      0.12610235836862
  H   3.83785720705387      3.19827615755682      0.08415980018310
  C   3.53298405663950     -0.03261499034241      0.01101504593582
  C   2.78416936380011     -1.24418881739882      0.02045881983194
  N   3.53088849632702     -2.38216428123883      0.08345821156759
  H   4.49800553450153     -2.34472122485018     -0.17893109793843
  H   3.07602929718269     -3.26870677480890     -0.05475778274581
  C   1.38479083019567     -1.37341776406855      0.01373135888498
  C   0.82374275249021     -2.66017328021535     -0.00228197369226
  N   0.38275493487767     -3.73905100122855     -0.01760095571251
  C   0.53312543454475     -0.24813918193410      0.01443848579247
  H   4.60555916284797     -0.18987180962299      0.04059528473491
  H   -2.03757943982304     -1.71577914652832      0.03912346983051
