25
Coordinates from ORCA-job ./opt_b97-3c_parallel
  N   5.30631346441086      0.72495283548821      0.00275710815111
  C   4.24221325563131      0.25404537348059      0.00231549785114
  C   2.91511750132796     -0.22747841600462      0.00150784286147
  C   1.90060868570340      0.76929121940871      0.00057705555792
  N   2.19865090771875      2.06802578140483      0.00046358763443
  H   3.15384883435554      2.38749644642552      0.00111890491408
  H   1.45506643374935      2.74879513062288     -0.00019717070930
  C   0.54371965150825      0.40666860239263     -0.00027162141551
  C   -0.09083234319396     -0.91889963147377     -0.00017767328380
  C   0.43672373440895     -2.17528174232213      0.00055242599446
  N   1.74963625652070     -2.49338062868138      0.00129851297123
  C   2.75671054737462     -1.64327591916383      0.00165792711929
  H   3.71865115491324     -2.15003582251789      0.00224551938450
  H   -0.23506080152484     -3.02639456038463      0.00054242701211
  C   -1.38131680561126     -0.28652755019879     -0.00103073396864
  C   -0.68587226697377      1.05442867078307     -0.00108975335650
  N   -1.09226781845533      2.31257068037957     -0.00158740357833
  C   -2.38499042607765      2.60198939299121     -0.00229735619686
  N   -3.50705935565173      1.83979377141268     -0.00269765905432
  C   -3.67522323258236      0.54876977285548     -0.00244036993813
  C   -2.71398929215898     -0.53818663580228     -0.00162514738387
  C   -3.20290500910943     -1.86889372259438     -0.00142788585990
  N   -3.60751039507958     -2.95659521960486     -0.00118409765044
  H   -4.71312014556039      0.22618440370248     -0.00290812674069
  H   -2.60208818664397      3.66281575310059     -0.00264663221569
