27
Coordinates from ORCA-job ./opt_b97-3c_parallel
  N   -5.00405108185836     -2.20062913298673      0.00027009404737
  C   -4.03810136529255     -1.54837844293163      0.00046272264803
  C   -2.91487271597485     -0.69977371759224      0.00071857214259
  C   -1.63428854248743     -1.32406379432085      0.00053396445736
  C   -0.46621155082922     -0.65272521740725      0.00091872452156
  C   -0.18823319501398      0.80116049451522      0.00142417078608
  C   -1.08785754556015      1.86879038058872      0.00134412368301
  N   -2.39526646624649      1.82250971748254      0.00129944401769
  C   -3.19448873622385      0.69743888328902      0.00139259797957
  N   -4.48142422952863      1.07275394122338      0.00210428023391
  H   -5.23814540027630      0.40967158227598      0.00225936785148
  H   -4.67258002369724      2.05900135297302      0.00225765419220
  H   -0.67607563809009      2.87459697204826      0.00123977942576
  C   1.19271460921462      0.59430205379387      0.00131615269925
  C   0.95621285840247     -0.89594022512567      0.00080491170928
  N   1.70718990077756     -1.93934574008050      0.00040597528150
  C   3.07756880299938     -1.79942944986752      0.00041331088315
  N   3.70254729838556     -2.99313504821133      0.00002410898019
  H   4.70479850167917     -3.02415718714834      0.00001512045601
  H   3.16268930605437     -3.83784096144875     -0.00015505292740
  N   3.89445597910509     -0.74687599424358      0.00067973142590
  C   3.63195624240591      0.55073162470216      0.00109479295211
  C   2.41534969802050      1.25501284987296      0.00141865726369
  C   2.44274897300459      2.67043724736433      0.00181495085393
  N   2.42575786164018      3.83190451361526      0.00199105527818
  H   4.52320142708247      1.17000602500659      0.00118657778271
  H   -1.62164399669270     -2.40602524448696      0.00007439877489
