34
Coordinates from ORCA-job ./opt_b97-3c_parallel
  N   -5.84890300207601     -2.17899327381010      0.00596659539265
  C   -4.97274917475443     -1.41473969069227      0.00374057189577
  C   -3.89490051277842     -0.49706614437425      0.00105067812872
  C   -2.56768804860238     -1.06011864538582      0.00176867417847
  C   -1.45184152436275     -0.31715274424847      0.00067391869072
  C   -1.11937417005247      1.09438114557718     -0.00158510142651
  C   -2.03790713932438      2.19793964057093     -0.00573853906372
  N   -1.54908577355682      3.45590142188579     -0.01230669972065
  H   -0.56615547081731      3.66368081248496     -0.00449501880890
  H   -2.17519074654920      4.23977354638951     -0.01042791420261
  C   -3.41333050582701      2.00416670043011     -0.00526911305649
  C   -4.21083463106917      0.84296155963425     -0.00204385242972
  H   -5.27240971727677      1.05415317143952     -0.00218542970789
  H   -3.98992382649830      2.92249505233402     -0.00829655842002
  C   0.27804529059405      0.83286828850972     -0.00006061938465
  C   0.01235650314026     -0.57453500490303      0.00159373499417
  C   0.77967230363344     -1.69310733389199      0.00196390004119
  C   0.14557139481422     -2.95706405593749      0.00377999942494
  N   -0.31007673303890     -4.02649929609841      0.00518255458155
  C   2.23938794156944     -1.68136762829066     -0.00080580432401
  N   2.80298648753266     -2.89957926732586     -0.00233938814206
  H   2.23591072914833     -3.72955568466722     -0.00236351869777
  H   3.80180676226657     -3.01517633515216     -0.00459274879346
  C   3.07252794594215     -0.55092181481434     -0.00335032609516
  C   4.44545316733109     -0.87130280962782     -0.00810854014159
  N   5.57298413740145     -1.16496189796072     -0.01184417057213
  C   2.78535282932070      0.87747210514011      0.00173622606900
  N   3.88324850323174      1.66834277608785      0.00462845643816
  H   3.79525152488365      2.66843861564321      0.00598464473061
  H   4.81044106852859      1.28536817747020      0.00486061612587
  C   1.53097073719836      1.50623207873009      0.00337654843463
  C   1.54279932499612      2.90702060009650      0.00905357326765
  N   1.56476122539217      4.07371558097048      0.01382819878424
  H   -2.48474656784071     -2.13690050911384      0.00368606350896
