23
Coordinates from ORCA-job ./opt_b97-3c_parallel
  N   -5.98444064808442     -0.61934316617287     -0.02843093379912
  C   -4.83216822872143     -0.48071247131742     -0.02443821441657
  C   -3.42312117608835     -0.27972423200335     -0.02093677521073
  C   -2.66847698696922     -1.43579986323149      0.01736633374577
  N   -1.30652416748490     -1.61551295740226      0.04189624511453
  C   -0.55545873799742     -0.57816159400298      0.00588775712517
  C   -0.76479204522286      0.91416625888388     -0.07336121022879
  N   -1.85948194566976      1.67917542926083     -0.08833055787637
  C   -3.03973502668179      1.12607715475416     -0.05915627192826
  H   -3.87601544752605      1.81538823254248     -0.06917960951252
  C   0.61402986059786      1.11175481137111     -0.06850216471391
  C   0.88620705423219     -0.33692653004788      0.01514477139549
  C   2.02940919459827     -1.03442258985749      0.09963651465924
  C   3.32539856372785     -0.39722426984331      0.01676549841079
  C   4.44547048231612     -1.26683216135993     -0.04303392059309
  N   5.34964899907788     -1.99403449384249     -0.08974419325196
  C   3.59716520181645      0.95386288793430     -0.07868513421494
  N   2.83814404380299      2.07392855859566      0.09171857128032
  C   1.54093850089882      2.16579135759513      0.09961688550250
  H   1.14268571269730      3.15643674685012      0.30286725027162
  H   4.63714305158051      1.19760475002833     -0.26359649433325
  H   1.99868545281933     -2.11238227645189      0.17824280298299
  H   -3.22121280521963     -2.36577527228291      0.04141054469066
