29
Coordinates from ORCA-job ./opt_b97-3c_parallel
  N   -3.74483254275719     -3.27554279574673      0.01643375568082
  C   -3.03911223199786     -2.34991952383222      0.02282446634035
  C   -2.10575222078959     -1.28906687195059      0.02467520736805
  C   -0.72130683204820     -1.67920327435310     -0.00031268641827
  N   -0.43236246126756     -2.99602782041204      0.00671124289397
  H   -1.16450386694069     -3.68071340245005     -0.07579824629944
  H   0.50836710339054     -3.30791159234142     -0.13648096204042
  C   0.29612523557059     -0.73870600652928     -0.00317485898179
  C   0.29612720885601      0.73873556942447     -0.00271607584177
  C   -0.72130241302722      1.67923502503245      0.00100109859070
  N   -0.43235495044812      2.99605459092467      0.00905145826121
  H   -1.16448972309817      3.68082081451588     -0.07284976252323
  H   0.50837938440015      3.30805893392041     -0.13385610634929
  C   -2.10575166171753      1.28908847851275      0.02578826789528
  C   -3.03911625229580      2.34993908565813      0.02487763534482
  N   -3.74486135994800      3.27555227793235      0.01919084163273
  C   -2.63694482653976      0.00000757271140      0.03579459208856
  H   -3.71938665623013      0.00000417752565      0.04750109810561
  C   1.71333042776816      0.75076291241268     -0.00344918503706
  C   1.71332577642011     -0.75073859443813     -0.00393974970063
  C   2.78349147408268     -1.60247515359611      0.01125597751422
  C   4.13032647370903     -1.19959827234698      0.01662928226784
  N   4.70078486467903     -0.00000638626748      0.01679596553982
  C   4.13033678771666      1.19958732462779      0.01734095667484
  C   2.78350175106292      1.60248118032576      0.01224774699202
  H   2.62360230965420      2.67615423447175      0.02786725690804
  H   4.85022973566536      2.01320467977526      0.02551708393762
  H   4.85021278532021     -2.01322407413707      0.02434591516499
  H   2.62357797451009     -2.67615347677021      0.02626277769040
