30
Coordinates from ORCA-job ./opt_b97-3c_parallel
  N   -0.79067257360557     -4.16481840961860     -0.01413336998152
  C   -1.02964769103613     -3.02710811595479     -0.02321596640941
  C   -1.35374410787276     -1.65162118441922     -0.02355864258803
  C   -0.31295227233800     -0.74949268854823     -0.00872244801510
  C   -0.31192768716895      0.75041398964350      0.00934296165258
  C   -1.35143901385011      1.65395757409205      0.02413500016686
  C   -1.02547918870764      3.02901184337242      0.02390553828047
  N   -0.78508877685322      4.16642194375197      0.01487389090301
  C   -2.73586688252991      1.29212145833343      0.02694707658739
  N   -3.63388257557180      2.32592048545391      0.10957137783143
  H   -3.31031755790305      3.25699872998296     -0.09029384660034
  H   -4.58315486088773      2.14798784527058     -0.16301644563729
  C   -3.27265988040078      0.00250176359639      0.00012846414819
  C   -2.73762953802809     -1.28788408467677     -0.02656420532364
  N   -3.63710665912341     -2.32041221469341     -0.10928575342921
  H   -4.58611932531715     -2.14115731799190      0.16334397506565
  H   -3.31485488141932     -3.25194361645248      0.09059501836407
  H   -4.35813154041169      0.00325149390855      0.00001820434437
  C   1.10038674175749      0.74428369754520      0.00725530249312
  C   1.09931881536463     -0.74529807916529     -0.00651577589092
  C   2.16775786388996     -1.60538057790365     -0.01834077264144
  N   3.45796711739989     -1.27504626444788     -0.01576786150612
  C   3.94188613119179     -0.00249025331809      0.00035404700416
  N   5.28494997914322     -0.00352845732273      0.00110170495356
  H   5.77349068146496     -0.88046287947884     -0.00978917586305
  H   5.77484043679293      0.87264843175709      0.01241344392864
  N   3.45978777717357      1.27065322905003      0.01575628803979
  C   2.16999102739538      1.60284562380873      0.01833785483144
  H   1.98362676884881      2.67265223801195      0.03015044646438
  H   1.97985475840271     -2.67491478958688     -0.03077167377310
