31
Coordinates from ORCA-job ./opt_b97-3c_parallel
  N   -5.41576781641490     -1.26844842299658     -0.02960096970018
  C   -4.36357461861875     -0.76734366753113     -0.01946739029644
  C   -3.13420499412282     -0.08025995134582     -0.00736484248049
  C   -1.95477981547667     -0.88127504553307     -0.00150980690027
  C   -0.68896600150857     -0.41060451524021      0.01084010399872
  C   -0.13409329396414      0.96419496724124      0.01903680384090
  C   -0.81435975454081      2.17791373665612      0.01759051788898
  C   -2.17389306419587      2.32417616924948      0.00853691697608
  C   -3.22464683689186      1.33732091315012     -0.00244759561007
  N   -4.46275547557550      1.87063639213675     -0.00968514290779
  H   -5.28269852575371      1.28695975147438     -0.01701365774405
  H   -4.59496892334058      2.86399941161161     -0.00564428741858
  H   -2.53449119173777      3.34511564452479      0.00956565264293
  H   -0.22799146206348      3.08896621269252      0.02405475224382
  C   1.17550578556136      0.47149680408229      0.02626225808141
  C   0.65350720662581     -0.92280762466140      0.01623417635421
  C   1.30993849537505     -2.11716183887913      0.00672841458997
  C   0.54941888147557     -3.31473719618153     -0.01022766096690
  N   -0.07843815272471     -4.29102907466900     -0.02457219183019
  C   2.73658515181911     -2.22752151132133      0.01392453466698
  C   3.69613290855201     -1.25836949198056      0.02852324428695
  C   3.65052909776398      0.16859667360486      0.03283880660833
  N   4.86897033033985      0.79353715970352      0.10230590221606
  H   4.91282278668905      1.78176770298470     -0.08120006762144
  H   5.67822369006996      0.27905547912474     -0.19416842152897
  C   2.48607992903914      0.96046420750461      0.02362663759184
  C   2.64476443882732      2.36476137712386     -0.00099038428292
  N   2.79215512412442      3.51778814085513     -0.02859429678863
  H   4.70713057431525     -1.64983760444181      0.04910192760247
  H   3.10903268342694     -3.24290082405775      0.00832082733597
  H   -2.10957466257460     -1.95230391138139     -0.00719915144867
