29
Coordinates from ORCA-job ./opt_b97-3c_parallel
  N   -1.17858996570336     -4.21112902689575     -0.00069338185129
  C   -1.37074420878368     -3.06490890565709     -0.00035906931741
  C   -1.61199956646732     -1.66662584501917     -0.00004584999156
  C   -2.98722876084088     -1.30417770099164     -0.00043139779440
  N   -3.58411050110070     -0.12671680092854     -0.00028071780167
  C   -3.07197308160175      1.09001551646911     -0.00012032512676
  C   -1.72572582479913      1.54857846354163     -0.00046651699378
  C   -1.58378001442918      2.96039336964275     -0.00027776678436
  N   -1.47378162619740      4.11739815010058     -0.00002784621182
  C   -0.60499720427975      0.74153639599654     -0.00066537407635
  C   -0.55099069246631     -0.78254401784245      0.00023162876607
  C   0.85335774841712     -0.71342996746460      0.00030395740894
  C   0.80078060437697      0.77177490447785     -0.00080129076969
  C   1.82891038604130      1.74279317116782     -0.00247119314326
  N   1.53052180168406      3.05525858134929     -0.00480192782978
  H   0.58878464692917      3.40739866704540     -0.00332007599584
  H   2.26730867926937      3.73570249464563     -0.00439045948363
  C   3.18945493360109      1.38957915602179     -0.00241300536992
  C   3.77142405025139      0.13351375359423     -0.00070914147335
  C   3.27979973805891     -1.16056609093231      0.00125906464133
  C   1.94762465540397     -1.60919470575020      0.00184835483446
  N   1.74285684904524     -2.93944160962312      0.00455327105454
  H   0.82839600936847     -3.35736132275322      0.00334351356054
  H   2.52595130884255     -3.56603461491228      0.00388261540178
  H   4.03139679854199     -1.94061502755725      0.00254428070817
  H   4.85548553505141      0.17193310252006     -0.00092538732394
  H   3.88396688162960      2.22085695844145     -0.00389553536328
  H   -3.81582342028369      1.87961121720455      0.00021623400890
  H   -3.67346529625944     -2.14433394589111     -0.00082192798266
