33
Coordinates from ORCA-job ./opt_b97-3c_parallel
  N   -5.26286041850222     -1.55511845488303      0.21105044101269
  C   -4.33101456367518     -0.85713332412382      0.15917861847229
  C   -3.16076517736639     -0.07368503208965      0.09201423015705
  C   -3.38663441277504      1.33170539636344      0.09067844973507
  N   -2.65476951198558      2.40967802487477      0.01307627988643
  C   -1.29031873867542      2.43216288243182     -0.07226183770613
  N   -0.79611767971375      3.71121035242296     -0.16965141006941
  H   0.06734603888219      3.83413226081299     -0.66873089408617
  H   -1.50694202408043      4.38984819427935     -0.38979222537581
  C   -0.46072891258581      1.34644332216541     -0.02144660064918
  C   0.94622855444920      1.10119403244047     -0.01307561562819
  C   0.67979879685036     -0.37691793290592     -0.00968603593327
  C   1.60177942073641     -1.42821814423143     -0.05171461468218
  C   1.11617153249406     -2.74617108201798     -0.15497256886924
  N   0.73294796323448     -3.84199918350076     -0.25371872603228
  C   3.01462941787302     -1.27939919985281     -0.01604150948069
  N   3.77052771477151     -2.43457025266798      0.01451711243447
  H   3.32040048802749     -3.29418882940311     -0.25157650312399
  H   4.71407551516872     -2.36258070714016     -0.32195599075083
  C   3.75237503353739     -0.08502608099768      0.06217935491306
  C   3.40147809534020      1.25582679093147      0.09037507969739
  N   4.42962345025696      2.18178592258635      0.11674131155354
  H   4.20434267459629      3.08584466131015      0.49425043163244
  H   5.32775415896733      1.85000244965263      0.42379776353305
  C   2.09327616682022      1.81273657677203      0.04104562780729
  H   2.03043869441026      2.89477342811126      0.07152046773182
  H   4.82292585254133     -0.25495021595078      0.12199293743832
  C   -0.70094324070609     -0.12118641854530     -0.00364448691097
  C   -1.92874967181169     -0.80146528752729      0.05283617056624
  N   -1.98549840809622     -2.13873931828901      0.09251033112679
  H   -1.16299959421136     -2.71303785122034      0.03104356342751
  H   -2.87636488760952     -2.60639421665975      0.11706270943335
  H   -4.44730824116292      1.56260420445141      0.16127745263959
