29
Coordinates from ORCA-job ./opt_b97-3c_parallel
  N   -6.37463920951345     -0.73839121860817     -0.00159932605692
  C   -5.24327681723197     -0.47752839935596     -0.00100792383160
  C   -3.85355504201060     -0.16121996556672     -0.00010542730221
  C   -3.01437025402725     -1.30391340386276     -0.00129687350616
  N   -1.68378550969408     -1.40915164726067     -0.00099383753067
  C   -0.91667698327428     -0.34652966341351      0.00062295604041
  C   -1.13672546649677      1.15854343406663      0.00252003006442
  C   -2.31272113417492      1.84684868428355      0.00302210735913
  C   -3.56134410469620      1.21222004527842      0.00177333811205
  H   -4.42551229292830      1.86259339352920      0.00230948226593
  H   -2.30526770748124      2.93064240693059      0.00441826930764
  C   0.27404762091819      1.32106300430414      0.00312757878694
  C   0.46830943080103     -0.13117988762264      0.00129677245360
  C   1.60059221081848     -0.94481805523752      0.00056836173420
  N   1.39512682970443     -2.27147813396064     -0.00106033260935
  H   2.15548619591744     -2.92839058482672     -0.00188014862940
  H   0.44803497061657     -2.61653861264052     -0.00180878246699
  C   2.93085450795741     -0.43109234701482      0.00154649277759
  C   3.95224748837094     -1.39481596007609      0.00069641084678
  N   4.79586350961261     -2.20051492209671      0.00010936906426
  C   3.34707215767327      0.94005856471178      0.00321947558793
  N   4.68626774174382      1.14030216913319      0.00321787230349
  H   5.06260305804182      2.06849473388557      0.00609721592733
  H   5.33663981252633      0.37461346445955      0.00367524961260
  C   2.57896503829026      2.13450418355095      0.00462337899901
  C   1.21189639792302      2.32815440617631      0.00460320723325
  H   0.86575628083947      3.35498216570589      0.00583836744720
  H   3.17705421035872      3.03738370464497      0.00571928328728
  H   -3.53403755188483     -2.25381665551730     -0.00269954547777
