25
Coordinates from ORCA-job ./opt_b97-3c_parallel
  N   -3.83416206327968     -1.68980519108402      0.10048859856122
  C   -2.84129304900003     -0.73872214750557      0.03915029327198
  N   -1.60687830469881     -1.18848591907003      0.02670001698095
  C   -0.58760723140721     -0.31916178396644      0.03381623536382
  C   -0.47926732930909      1.18975066741789      0.00703378820790
  N   -1.31431921683778      2.15817422378052     -0.00023211958479
  C   -2.66219139375649      1.82869273715400      0.03157788096646
  C   -3.31215186837810      0.63581244239261      0.05140065859167
  H   -4.39175716602713      0.72947796066112      0.09311000442258
  H   -3.29809390443141      2.70623885188324      0.04390496280219
  C   0.98196928149834      1.04832875284715     -0.00690526316580
  C   0.79062043052515     -0.40276173441982      0.01421461630121
  C   1.78557859353348     -1.42259742063486      0.01481117681997
  N   1.32296874373702     -2.68903394293631      0.02602222702230
  H   0.33145784279306     -2.85408976393798      0.06615523192531
  H   1.94433948831745     -3.47551887706389      0.06443697427467
  C   3.13342381126830     -1.11495776398813      0.00007896965862
  C   3.77023715614537      0.16104605566184     -0.02359924136273
  N   3.38872066432185      1.41354936645263     -0.03642001380646
  C   2.08087380368915      1.83069201762168     -0.02835700713696
  H   1.95326950494138      2.90684333370309     -0.04066447260297
  H   4.85580051111595      0.06400789888749     -0.03393528987922
  H   3.82231915494448     -1.95252069839414      0.00286889914541
  H   -3.53128062880960     -2.62506554537701     -0.11236107184043
  H   -4.73748415749552     -1.45018911568514     -0.26800763543694
