29
Coordinates from ORCA-job ./opt_b97-3c_parallel
  N   -0.54432781723022     -4.52665077810112      0.00003630590695
  C   -0.92329433204479     -3.42926511873859      0.00010936393285
  C   -1.37501680926659     -2.08505606670997      0.00019985348956
  C   -0.44826936743649     -1.07015860233347      0.00019587743575
  C   -0.65395629034802      0.42517913618749     -0.00008274071810
  C   -1.84699531509970      1.13578591309997      0.00016288983088
  C   -1.78851087546098      2.54419510658047     -0.00007632251340
  N   -1.75391573928618      3.70800022905269     -0.00031368941012
  C   -3.14593558222848      0.53207948495711      0.00062271890435
  N   -4.22383497533790      1.35638354019027      0.00256350252165
  H   -5.13079982106513      0.92906564643112     -0.00232607304860
  H   -4.14765827233312      2.35617179059188     -0.00317418150329
  N   -3.49220689675213     -0.76302736603624      0.00019534512226
  C   -2.77706725663456     -1.86110265042722      0.00002989486569
  H   -3.37687002475442     -2.76608861900312     -0.00037533026324
  C   0.73536004072382      0.60090707302102     -0.00029948934960
  C   0.94318187676394     -0.86782487507142     -0.00009580351054
  C   2.09436380999890     -1.62030147454815     -0.00033407283059
  N   3.33834907089395     -1.16413437717942     -0.00053992874559
  C   3.68239404507508      0.15260159952837     -0.00066884637899
  N   5.02301761079710      0.29158523990613      0.00004918392082
  H   5.42905986215456      1.20857284172550     -0.00015522008865
  H   5.59535280795474     -0.53224914625223      0.00044867662382
  N   3.05676904574582      1.34213141758381     -0.00156958435032
  C   1.74408967649881      1.58828661040709     -0.00152688578834
  N   1.43229742065381      2.89364557786475     -0.00284861534342
  H   0.48640627133767      3.23334688070423     -0.00230619325868
  H   2.18878166032009      3.55411943042304     -0.00310395088081
  H   2.00399945986045     -2.70200736715396     -0.00034167617228
