25
Coordinates from ORCA-job ./opt_b97-3c_parallel
  N   4.41230492506110      2.13720627782084      0.00112689002572
  C   3.47195437127219      1.44898828889404      0.00012322120601
  C   2.38613630300065      0.55081196782126     -0.00116703087345
  C   1.08792155629023      1.12271612821300     -0.00132459336677
  C   -0.08252279224432      0.44033772789296     -0.00249829675564
  C   -0.37973863547728     -1.00582132422782     -0.00388761017716
  C   0.50665238397407     -2.07537632265148     -0.00435394780712
  C   1.87326213817335     -1.98416057038754     -0.00358526335438
  C   2.73105129248995     -0.83335933270396     -0.00217409703727
  N   4.04545299377666     -1.12892755810696     -0.00175180983047
  H   4.35834829476618     -2.08112557298488     -0.00247730248193
  H   4.74454074452696     -0.40496981768422     -0.00083167588643
  H   2.40695058391426     -2.92663924543093     -0.00411322609124
  H   0.08349909720020     -3.07328470277426     -0.00542010761295
  C   -1.76182925587005     -0.77381408586691     -0.00437234894885
  N   -2.86272712392093     -1.50034302523421     -0.00553390045266
  C   -4.03860497251217     -0.88381311794921     -0.00558272515305
  C   -4.35849578081984      0.49747750038668     -0.00455824670188
  C   -3.58230200052506      1.63851498696049     -0.00320450759664
  N   -2.22301948620916      1.79424619314110     -0.00240233948384
  C   -1.49052803822777      0.73417676114992     -0.00294692064434
  H   -4.11733803423952      2.58073276495185     -0.00266394290024
  H   -5.42528573853260      0.69271940174325     -0.00491434231752
  H   -4.89110413915132     -1.55468238491941     -0.00657430847937
  H   1.04346464898417      2.20449696904642     -0.00041942097858
