33
Coordinates from ORCA-job ./opt_b97-3c_parallel
  N   -6.62855465207080     -0.13036132399991     -0.00076468499540
  C   -5.46866628991059     -0.12772830497659     -0.00043464040726
  C   -4.04141439387944     -0.11871872008899     -0.00009029352335
  C   -3.45140140314161     -1.38116618567383      0.00038977033467
  C   -2.08007054754879     -1.70908686385295      0.00078114516309
  C   -1.73516541589857     -3.08936420636411      0.00117632947634
  N   -1.43017007946095     -4.20844285835832      0.00148808618186
  C   -1.05052175475789     -0.80016546291171      0.00081728099545
  C   -1.03632764904363      0.69763090872472      0.00044447135695
  C   -2.12955134940845      1.55998030459234     -0.00013733984977
  C   -1.89365587508352      2.96067061935308     -0.00060709653632
  N   -1.66804539901848      4.09973182245648     -0.00103621265228
  C   -3.47370415680981      1.16955016766771     -0.00033243677219
  H   -4.18778113574041      1.97974642591046     -0.00075315014845
  C   0.37611065997074      0.66817809201935      0.00068018307280
  C   0.36662251088161     -0.80091169140288      0.00107849077427
  C   1.35105467688608     -1.74978842987205      0.00078783384442
  C   2.72011643924993     -1.49846594077059      0.00043940119255
  C   3.56277207805530     -2.63323162578692     -0.00032995477269
  N   4.30114632221505     -3.53201459600504     -0.00105938685515
  C   3.39193653375158     -0.22303936710262      0.00081581455106
  N   4.73362690893872     -0.28956907259967      0.00047750234784
  H   5.20388978368365     -1.17895774238253      0.00011739350635
  H   5.30285098311692      0.53908384985029      0.00069803725177
  C   2.83257277288709      1.09475987877765      0.00178252150490
  C   3.78606734526663      2.13219494972383      0.00265028259506
  N   4.56887053645493      2.99486738260261      0.00329623081171
  C   1.47526003589712      1.54966862908215      0.00132819179478
  N   1.26532309692028      2.87084172482838      0.00169586923756
  H   2.03362617315199      3.52051863082111      0.00183122883353
  H   0.33943444452108      3.26505019704982      0.00123172847889
  H   1.05045799084002     -2.78855936046950      0.00070745344333
  H   -4.13297581051575     -2.21874129034178      0.00045277846366
