29
Coordinates from ORCA-job ./opt_b97-3c_parallel
  N   -5.29850874334173     -1.36421122409916     -0.16540177983819
  C   -4.29525097195265     -0.77810147428024     -0.12447230861452
  C   -3.07114688079187     -0.06695316771146     -0.07290846375011
  C   -1.87493426315397     -0.84051567029356     -0.00817901683588
  C   -0.64794259427764     -0.27364240548430      0.01199549409249
  C   -0.21216036271544      1.13974872246958     -0.01821703489886
  C   -1.00341416916286      2.29477060276503      0.03605958681671
  N   -0.41047223882458      3.50537775189559      0.14456998884676
  H   0.53803113419693      3.57781148081412      0.46301338564662
  H   -1.02214367562299      4.28816659458259      0.30444079244702
  N   -2.34269787740830      2.35624034182454     -0.03652612904893
  C   -3.18831078220007      1.33272532885308     -0.10883827252903
  H   -4.21710104654915      1.67046448009386     -0.19482738616044
  C   1.14440827330400      0.75974813646476      0.00511488312358
  C   0.72924860280213     -0.67593585663489      0.03897075256923
  C   1.47673972714497     -1.81647397149886      0.07518033546972
  C   0.80592204341555     -3.06839315653067      0.10271759939536
  N   0.25297252090191     -4.08834428296046      0.12471525479391
  C   2.90306970635065     -1.82654521780600      0.09205592448420
  C   3.78496875651706     -0.78216470417983      0.05226599295377
  C   3.61155048081162      0.62831672244165     -0.02746539873134
  N   4.78033661451771      1.37275722426597     -0.02746410394531
  H   4.71085857614601      2.31454506231639     -0.37251466123280
  H   5.60810956360773      0.90654735831330     -0.35663902568970
  C   2.40143731364241      1.32308510545301     -0.04332121574616
  H   2.47228728711744      2.40442669685635     -0.11472463648812
  H   4.82479801182157     -1.08933251458370      0.08617195634196
  H   3.34937951835550     -2.81027093231105      0.13962107637273
  H   -1.96913320805170     -1.91791201823492      0.01217739135536
