35
Coordinates from ORCA-job ./opt_b97-3c_parallel
  N   6.09408763097834      0.43818145988230     -0.07030598729807
  C   4.93393992562294      0.33116020157009     -0.04410874560566
  C   3.52897057704812      0.22187662937377     -0.01109464651424
  C   3.03578092251332     -1.13495249135186      0.05443770756938
  N   1.78888143580689     -1.59229966895420      0.10862026027656
  C   0.73863082447857     -0.79809938626973      0.10666844724437
  C   0.52560676301424      0.70331238718640      0.04445846212604
  C   1.44527553557117      1.69020171069419     -0.04465985699055
  C   2.84923928461309      1.46652774110842     -0.05642024546354
  N   3.60823560172871      2.60429806116259     -0.07763781646960
  H   3.16647992962559      3.45883223532154     -0.36108527112584
  H   4.59126474649595      2.54171715652957     -0.28068243698071
  H   1.12775644129906      2.72471873861072     -0.11826676114775
  C   -0.88047234336987      0.47178480096493      0.06090810591170
  C   -0.63730330918751     -0.98776806733028      0.11962827731390
  C   -1.50632181232229     -2.07905335697552      0.02760121990880
  N   -0.94619296320745     -3.32038016561301      0.08714142376073
  H   0.05400007825704     -3.37340244559684     -0.02171536671082
  H   -1.47116662469945     -4.10694746528852     -0.25048895415659
  C   -2.88388163575565     -1.93762312550646     -0.10406069118155
  C   -3.68752597656238     -0.77811342438747     -0.09629569941931
  N   -5.02100891054015     -1.03631290481928     -0.22953347272378
  H   -5.35254928211612     -1.96664038394023     -0.05722668609661
  H   -5.68957866577394     -0.29802945776432     -0.09196969324734
  C   -3.34639706902741      0.60744165290753      0.01002595040811
  C   -4.42351982745336      1.50032056477434      0.08990373095911
  N   -5.31890642755082      2.24855521857258      0.16104733751423
  C   -2.03796406278688      1.20702846742989      0.04013112845252
  N   -1.96852405579955      2.57912231777165      0.00647811417987
  H   -1.14905387525124      2.98790652481750      0.41796071552191
  H   -2.81467532363947      3.08777765868445      0.20546810202721
  H   -3.43756414610218     -2.86385173451963     -0.20901726649983
  N   3.97732469129666     -2.13186030792709      0.00665010255133
  H   3.63595806073171     -3.03583236795549      0.28043494326217
  H   4.92994425096435     -1.92962298396258      0.25441481934382
