28
Coordinates from ORCA-job ./opt_b97-3c_parallel
  N   5.64892427890477      0.85388234933308      0.00091926464855
  C   4.49727194819357      0.71061054729051      0.00077797300443
  C   3.08052545309671      0.54311107904325      0.00021691007632
  C   2.36989088255546      1.76246782523403     -0.00081171541141
  N   1.05186440811608      2.00186872162693     -0.00186973860162
  C   0.18020682206764      1.03543772750742     -0.00211862155098
  C   0.21740073466578     -0.50301669983450     -0.00149126723930
  C   1.34200250282905     -1.30234449353092     -0.00015295573189
  C   1.18028130469300     -2.71338768355591      0.00039903036056
  N   0.98630062646038     -3.85864817105918      0.00102047915837
  C   2.65432250001814     -0.79376467806600      0.00062079342922
  H   3.44239403174787     -1.53243933330296      0.00152314161136
  C   -1.18754754642654     -0.49596373232965     -0.00302265947203
  C   -1.21652774860625      0.97357457430625     -0.00354264543131
  C   -2.25814923443178      1.90458797961037     -0.00554775538810
  N   -1.93705540687472      3.21038049435945     -0.00533581447594
  H   -2.64167764889871      3.92374782663930     -0.00802735382015
  H   -0.96796178590241      3.48530032267274     -0.00477338001010
  C   -3.60076881559223      1.48319228251729     -0.00761182612112
  C   -4.09026828699572      0.18528571563544     -0.00790742786006
  N   -3.57975701168831     -1.04595150097012     -0.00646323803380
  C   -2.28612263784884     -1.39518905047742     -0.00421000031814
  N   -2.07569846854459     -2.71784298348976     -0.00314684262537
  H   -1.16003228180266     -3.13553623240924     -0.00147478751378
  H   -2.88547323428094     -3.31337482687475     -0.00422378557339
  H   -5.17741872931252      0.15175940120519     -0.00978534519192
  H   -4.35837905098409      2.25722050488336     -0.00918954055917
  H   2.98237631724186      2.65445619183580     -0.00082443495921
