28
Coordinates from ORCA-job ./opt_b97-3c_parallel
  N   -4.78832826651884     -0.17214840454376     -0.09289655952358
  C   -3.43465337506293      0.02967583671360     -0.04453598067723
  N   -2.77918718176515     -1.14871703992967     -0.01898415739652
  C   -1.45628860200965     -1.30800755416350     -0.02490012874826
  N   -1.02074914383363     -2.58497339359901     -0.03339987881027
  H   -0.03646350155017     -2.77322648161132      0.05690727718485
  H   -1.69081179594880     -3.32525191051709      0.06780033404971
  C   -0.47680044745728     -0.30302410799024     -0.02674727682100
  C   -0.60043380642854      1.16456608909838     -0.02984893923107
  C   -1.73897357096913      1.92075851676474     -0.04708636012518
  C   -3.02651410048554      1.38525250715203     -0.05677720608107
  H   -3.83936078454721      2.10008047711401     -0.08972950007456
  H   -1.65411743971595      3.00159250839875     -0.04975078537983
  C   0.81909192940861      1.29655978200013     -0.00660282948456
  C   0.91685793234322     -0.22420261495421     -0.00065928901932
  N   1.89501478383826     -1.10375516297168      0.00942148577600
  C   3.17896095361942     -0.73231656689636      0.03861861485263
  N   4.06860081120854     -1.79492616605234      0.11062802681188
  H   4.98397863616774     -1.64046049452496     -0.27568321260699
  H   3.66153733254746     -2.67197367214975     -0.16812732074344
  C   3.75008048031163      0.56863625959497      0.05870112173215
  C   3.18327334529638      1.82525174742444      0.04262112129001
  C   1.82449243279560      2.20828317028543      0.01201349875061
  H   1.59853378498734      3.26859827603906      0.00591867214626
  H   3.89540079556772      2.64204362733941      0.05950832484260
  H   4.83393273748512      0.56609362969878      0.10390715548196
  H   -5.40942735554491      0.57700894722065      0.15106596136727
  H   -5.09525044443934     -1.10574717584048      0.11515013673697
