31
Coordinates from ORCA-job ./opt_b97-3c_parallel
  N   -5.68793610096904     -1.52585126215718      0.00209700980587
  C   -4.56527395818083     -1.22414301192307      0.00198350492806
  C   -3.21985381824001     -0.77832494112868      0.00144230873759
  C   -2.26124475607181     -1.82315016806749      0.00086805911985
  C   -0.88152701713044     -1.80513168420650      0.00030318078694
  C   -0.22223136583859     -3.05754666114071     -0.00024286752920
  N   0.37169626966868     -4.05665964202404     -0.00068162836924
  C   -0.09878176171211     -0.62950027012249      0.00016059975190
  C   -0.58067586881778      0.76115470616486      0.00030347550117
  C   0.80202952109357      1.23256720092647     -0.00016305701920
  C   1.22607619822717     -0.17050073808281     -0.00020860236607
  C   2.56393598265535     -0.66430268574111      0.00015579050718
  N   2.78521864069172     -1.97979971803477      0.00086059131431
  H   2.03747305876989     -2.65497625896150      0.00067986332498
  H   3.72748308582796     -2.33690128019451      0.00112661042316
  C   3.65636564659780      0.23476986405641     -0.00005990830457
  C   4.93160811265015     -0.37211630886469      0.00051922387444
  N   5.95411929131571     -0.92788551430988      0.00130477868489
  C   3.68099675395963      1.67410955660840     -0.00109022895298
  N   2.79020967082606      2.62338018909390     -0.00120075175844
  C   1.44051061705466      2.42132232858683     -0.00041387371474
  H   0.85409208076329      3.33140135008810     -0.00011892446266
  H   4.70095628264886      2.05109686854797     -0.00187677231194
  C   -1.80558896198567      1.34062446327377      0.00086360787932
  C   -1.87248339481549      2.75711124860431      0.00088292721616
  N   -1.99036475442521      3.91214496051273      0.00074216314929
  C   -3.07601742162756      0.62338663252003      0.00150068063861
  N   -4.17617771041208      1.39442033855752      0.00218251140659
  H   -4.11154915148656      2.39721837485767      0.00206871355462
  H   -5.09466602743000      0.98411793829195      0.00253762023087
  H   -2.70456132050733     -2.80846785613152      0.00089254755324
