28
Coordinates from ORCA-job ./opt_b97-3c_parallel
  N   5.02579038674701      2.62233327229271      0.00179777666213
  C   4.07391732334960      1.95609975410950      0.00114070223628
  C   2.92259434599718      1.12696599144851      0.00050077923368
  C   1.70051749635371      1.76100016876029     -0.00086879573146
  C   0.47018349618034      1.10157657189346     -0.00160686345019
  C   0.17554666069348     -0.33987064565188     -0.00115620556173
  C   0.93045485661405     -1.44020976100081      0.00002462504112
  C   2.39342540383192     -1.38907555670354      0.00123822923039
  C   3.03450177380904     -2.65682938807501      0.00238193176293
  N   3.52757276204868     -3.70817623491273      0.00328840289498
  C   3.21042515194921     -0.29772762160186      0.00141757338921
  H   4.26894832805605     -0.51875917532490      0.00242536599293
  H   0.47315837545970     -2.41901266823370      0.00011849856198
  C   -1.25760620356913      0.00587126886889     -0.00252203056677
  C   -0.89934841551234      1.42642797885246     -0.00293196151091
  N   -1.60773643298792      2.56165195580138     -0.00409482497719
  C   -2.91845421530638      2.51005621911949     -0.00515951728419
  C   -3.85532302413342      1.44321507005560     -0.00539114340499
  C   -3.71901145936757      0.06686973645369     -0.00457925433110
  N   -4.81833035831286     -0.71563972134430     -0.00505799847982
  H   -5.73575839518662     -0.31089279958601     -0.00604669326329
  H   -4.75455902014502     -1.71798212013440     -0.00454957743399
  C   -2.43856222066908     -0.65394781513224     -0.00317327821639
  C   -2.45928536292872     -2.06640073969777     -0.00249244649454
  N   -2.53258065919044     -3.22655211460017     -0.00196808320595
  H   -4.88328238225654      1.78813178575238     -0.00640950025374
  H   -3.39097137787833      3.48830648005382     -0.00604708254039
  H   1.69293947595437      2.84338986413717     -0.00139142429899
