28
Coordinates from ORCA-job ./opt_b97-3c_parallel
  N   5.72264284387432      0.43198548092898      0.01349294448742
  C   4.55890606843083      0.41333959369944     -0.00769347861530
  C   3.14699607077233      0.32238761021206     -0.02535774400835
  C   2.47348024472176      1.58507778698775     -0.02523742270367
  C   1.14018674882794      1.89593404399454     -0.01510052004671
  C   0.11049024351094      0.95647720254973     -0.00543970099219
  C   0.21478089217851     -0.52381635598499     -0.00790625154619
  C   1.26160586858001     -1.36947098406328     -0.02856441608118
  C   2.64383652157307     -0.99213173259998     -0.03686222223878
  N   3.51993893607820     -2.03816620140047     -0.10226582953571
  H   3.19375185605462     -2.94983163905036      0.15962789671529
  H   4.49998515937881     -1.86848432943168      0.04960206728052
  H   1.05663033936327     -2.43439507299727     -0.04726646682408
  C   -1.24011267836350     -0.60545767813325      0.00468556523361
  C   -1.28629024617175      0.86752587312415      0.00809163639327
  C   -2.42583720589622      1.67579525328997      0.03770995622622
  C   -3.70408710512410      1.20421847526185      0.05668965314036
  C   -4.17330702806838     -0.18123945797069      0.03162400712449
  N   -5.53251254178025     -0.27774993776725      0.05747524187747
  H   -5.91662546317948     -1.19558539806269     -0.08597364681267
  H   -6.11144446272677      0.51195922126605     -0.15840518040818
  N   -3.56273206302391     -1.34466420766070      0.01379682811092
  C   -2.21291696927746     -1.54003505291816      0.01899864440239
  H   -1.93099176806102     -2.58849625999490      0.02190108960618
  H   -4.49215568317108      1.94571851834918      0.09969493563707
  H   -2.29591159336616      2.75278429752623      0.05304551302120
  H   0.88000957702052      2.94776592037161     -0.01275363689123
  H   3.15265840934497      2.42711437127412     -0.02531536665221
