28
Coordinates from ORCA-job ./opt_b97-3c_parallel
  N   -5.90716816561104     -1.04158079752978     -0.00037446390200
  C   -4.75764046961948     -0.86086075884042     -0.00038008721901
  C   -3.37440417064737     -0.56765942798716     -0.00059680658839
  C   -2.51456265620318     -1.70513726208194      0.00302700748386
  C   -1.14722645613912     -1.78862686052907      0.00363218308522
  C   -0.31957750872164     -0.66581281579181      0.00058382432391
  C   -0.73859227792839      0.76522909450795     -0.00309779130416
  N   -1.83380104307431      1.42505532551299     -0.00527166027209
  C   -3.06718657021744      0.81144227738172     -0.00440527279379
  N   -4.05891921821912      1.72207131000441     -0.00774593418513
  H   -3.80394057376538      2.69212508017350     -0.00988930957961
  H   -5.02898242763986      1.46226056789700     -0.00737701409610
  C   0.67391301350538      1.16783810253816     -0.00344131877996
  C   1.01781051310294     -0.25558056432050      0.00004890604306
  C   2.30961135609813     -0.83324459347576      0.00144313710036
  N   2.41072814502613     -2.17121778493446      0.00439995885277
  H   1.59289733208544     -2.74904186976746      0.00202743693497
  H   3.30987023954108     -2.62399543051922      0.00378401618012
  C   3.46822942632010     -0.02947489821423      0.00032371940554
  C   4.69027696054899     -0.73239329182990      0.00182848217139
  N   5.66058325050056     -1.37694494774267      0.00278008221868
  C   3.58362790645713      1.41293667685036     -0.00215728481744
  N   2.75793690766452      2.41538395651486     -0.00467090484312
  C   1.38865849475248      2.30663478841593     -0.00545893250238
  H   0.86268310582415      3.25374306910829     -0.00786802255348
  H   4.62689072505838      1.72161415084052     -0.00201867013975
  H   -0.72080186976614     -2.78468374765212      0.00695321233876
  H   -3.04793342003293     -2.64597450142921      0.00570633723774
