25
Coordinates from ORCA-job ./opt_b97-3c_parallel
  N   5.30909769555349      1.36734751959554     -0.14414474164304
  C   4.30247660188779      0.78923872796230     -0.08179421956172
  C   3.05540130483198      0.11852352552595     -0.00415179614887
  C   1.87956041904916      0.98184152231983      0.05077495167067
  C   0.64165525224769      0.48226003753489      0.00852002384465
  C   0.14341289303089     -0.90976980596309     -0.03058039048841
  C   0.87649111310011     -2.10346714597797      0.09844036569214
  N   2.17328348077730     -2.25330755178049      0.10465079294837
  C   3.10652903545285     -1.25668339532869     -0.02869938490803
  H   4.10537423719740     -1.66454477745510     -0.13844748348065
  H   0.30725152691448     -3.02026989300211      0.23833882806410
  C   -1.18714920832997     -0.47696328303266     -0.01938723730632
  N   -2.37858808651422     -1.07647159793961     -0.03571036260294
  C   -3.50436083723290     -0.40100234783651     -0.00857456332884
  N   -4.64090476853023     -1.15815936397996      0.03468894725643
  H   -5.52091345166393     -0.76042879936825     -0.23697143694012
  H   -4.52026502270806     -2.14082075019208     -0.14053273154993
  C   -3.74417088727335      1.03745167447581      0.02172673101428
  C   -2.88545125523374      2.08556466637737      0.03425881617098
  C   -1.45180601491251      2.08755480038976      0.03041678055891
  C   -0.74717506818027      0.94426375848655      0.01246451926771
  H   -0.94635207252061      3.04490734413349      0.04828198027705
  H   -3.34994406507131      3.06431038702049      0.05546597230648
  H   -4.79462913165401      1.30373242929810      0.04693616671414
  H   2.04781575208195      2.04927724483647      0.09094422467297
