32
Coordinates from ORCA-job ./opt_b97-3c_parallel
  N   -4.09192906236040     -2.19752086415003     -0.15323563027961
  C   -3.12477790106599     -1.19754465147798     -0.08424688787135
  N   -3.65126303036708      0.02182262621993      0.02276045544696
  C   -3.08778416087670      1.21659443435546      0.11405046651772
  N   -4.00875289928340      2.25399890119127      0.19851135545908
  H   -3.70773759422332      3.07773564710866      0.69106594605335
  H   -4.92700259381316      1.93986791727444      0.46557833859161
  C   -1.72434004127364      1.60577301855912      0.06871062886268
  C   -0.68561148518460      0.73010676038436      0.00046485080685
  C   -0.70652563303407     -0.78279597710405     -0.00893723544835
  C   -1.78282851097041     -1.62611895938816     -0.06304284892936
  H   -1.61813586786177     -2.69802194494815     -0.10705809642703
  C   0.70144553328466     -0.78576691500552     -0.01071087624816
  C   0.73055347333097      0.69514362428058     -0.01690611646805
  C   1.79248998805984      1.57717640851940     -0.10446368095465
  N   1.55133679909847      2.93087651200437     -0.15575901108888
  H   2.34328098797675      3.46596234368512     -0.47211763763238
  H   0.67140562879443      3.21360939738760     -0.55100034618994
  N   3.09926884396720      1.26955261511926     -0.10499856044080
  C   3.62833540215412      0.04232422266435     -0.03407399340763
  N   5.00337103586441      0.09974378441328     -0.07076458729271
  H   5.38381173973477      1.01041750779071      0.12036747365580
  H   5.52507246105662     -0.67802401586019      0.29083987905270
  C   3.09580894745819     -1.26385406227618      0.02995458111580
  C   1.75939701942007     -1.68103553450979      0.03479665232808
  N   1.49545994406058     -3.03601977140870      0.04097682541877
  H   2.23577766576492     -3.62396081024136      0.38526482271700
  H   0.59708801610018     -3.29525883092227      0.41036102099623
  H   3.83524929344049     -2.05667097985100      0.04122844945643
  H   -1.52293311641760      2.67145009192083      0.10775846741597
  H   -4.99633047668200     -1.83991917025344     -0.41321323835379
  H   -3.83287516105236     -3.02434540428151     -0.66459908246274
