28
Coordinates from ORCA-job ./opt_b97-3c_parallel
  N   -4.66461907565500     -0.57298259179183     -0.11539236693759
  C   -3.31416912211660     -0.35850448446595     -0.02236331606722
  N   -2.64285849149025     -1.50828434766234      0.00175740165100
  C   -1.30592762601715     -1.65672109285218      0.05001433209895
  N   -0.88194734792184     -2.94895651941442      0.08481552459157
  H   0.09361269475105     -3.12987475902456     -0.08149756681275
  H   -1.54434918838826     -3.64589901275145     -0.20647249576518
  C   -0.36866487192727     -0.63992763024616      0.10516326481644
  C   -0.52544332554944      0.82809327633182      0.09665468020052
  C   0.84177932083296      1.03782532524376      0.06538935493635
  N   1.68015137276747      2.05678541723577      0.01851339695694
  C   2.98429096243266      1.77393677662772     -0.02718992574331
  N   3.67845910096687      0.63204810763969     -0.03633052009673
  C   3.30385137055640     -0.64157575512697     -0.02630862393075
  N   4.32974027355315     -1.53846083549845     -0.10516514727475
  H   5.25210234461600     -1.18258283602820      0.06691875052816
  H   4.13370215396430     -2.48944066980163      0.14750599317208
  N   2.07541005442557     -1.26109621691227      0.01903439430329
  C   1.03496497053045     -0.49333633274943      0.06520004788137
  H   3.61983309452275      2.65274467781067     -0.05916938988099
  C   -1.69760604647963      1.60446153289239      0.05528015771950
  N   -1.53973864732141      2.95317560400994      0.09797297664423
  H   -0.60785310676587      3.31671694163024     -0.02003689499176
  H   -2.29691768451182      3.55312395469483     -0.17406931763314
  C   -2.95464519912740      1.02297582619256     -0.00623744924651
  H   -3.79268398120804      1.70860139704567     -0.05678803128961
  H   -4.95992608831215     -1.51663964376983      0.06404635408294
  H   -5.30128376422751      0.15653915664064      0.14773510128697
