31
Coordinates from ORCA-job ./opt_b97-3c_parallel
  N   -2.39238878351513     -3.23321405931952      0.10151011469385
  C   -2.27119619685206     -2.07736595962701      0.03279746343620
  C   -2.12871631234244     -0.67407910821925     -0.03223554338283
  C   -0.86116546685926     -0.13198703848489     -0.06048467355293
  C   -0.46128534033502      1.35695948294192     -0.07511749119160
  N   -1.09860972896374      2.50076820169202     -0.05397963764298
  C   -2.43660456905613      2.52696375224518     -0.03263390039361
  C   -3.39344219313680      1.51372041629864     -0.02821698210181
  C   -3.32636691307864      0.11615829104638     -0.03018214311279
  N   -4.52460605358826     -0.57029527486741     -0.08819382660728
  H   -5.33770903293697     -0.06633657946099      0.21870902396269
  H   -4.52466157240510     -1.53342289174437      0.20345470028650
  H   -4.40812205383138      1.89922354166885     -0.02920155372215
  H   -2.84793712199151      3.53066250271634     -0.01699975618013
  C   0.87453390149601      0.97403681977414     -0.08060319631868
  C   0.50770283991632     -0.45861092092887     -0.05750462240160
  C   1.36732145429188     -1.57158043802870     -0.05908084040932
  N   0.87267027086899     -2.82483858376291     -0.13913494858818
  H   -0.10983853491517     -3.02343782243217     -0.07395891208589
  H   1.52371728399550     -3.57973168270658     -0.02079241793003
  N   2.70375253411872     -1.52993599609124     -0.00884521550659
  C   3.51076514034234     -0.46380311841556      0.05590792885971
  N   4.82039647458462     -0.85296604205180      0.18114369254877
  H   4.99804247436020     -1.82064935451463     -0.02269632541915
  H   5.55035400939406     -0.20417524275116     -0.04990097190968
  C   3.31007906335701      0.93415790801718      0.04282307964885
  C   2.10694948953282      1.62967531077432     -0.03348756842797
  N   2.08770897922695      2.98944008939677     -0.09559160132423
  H   1.19373513647918      3.44134988437919      0.01789492253611
  H   2.89480110882655      3.50546294889272      0.20397293253566
  H   4.21066369971644      1.53410605126346      0.10147888550109
