35
Coordinates from ORCA-job ./opt_b97-3c_parallel
  N   -5.90339897133001     -1.60373934974402     -0.03283738180987
  C   -4.95253675363743     -0.93125808101257     -0.02273693514358
  C   -3.75846230644250     -0.17964745237766     -0.01846385290154
  C   -3.93403385817623      1.21601236187175      0.02743284885344
  N   -3.16153582683458      2.27602199987637     -0.01894741804252
  C   -1.80759028230758      2.29672202261450     -0.07235483651752
  N   -1.33655290605580      3.53826169654468     -0.26982175280424
  H   -0.36352105099760      3.78043886579024     -0.20946993311644
  H   -2.01762275571158      4.27739189829769     -0.23961901433490
  C   -0.96777099534435      1.17968142215030      0.03933623932491
  C   -1.29792238770004     -0.29187563904652      0.02356996843938
  C   -2.53698784702465     -0.93749309656821     -0.03774728105868
  N   -2.64834373708744     -2.26987334773477     -0.13040845044884
  H   -1.85848345635740     -2.88505130661638     -0.04994077393085
  H   -3.56072844482673     -2.69548553375787     -0.12448645395607
  C   0.06895728378994     -0.60491896052670      0.03232207411503
  C   0.40107615858243      0.87344555732073      0.04808312173141
  C   1.63012333648589      1.50450474487434      0.13598196708742
  C   1.65384272168309      2.90160886646467      0.32956295107486
  N   1.71075014139058      4.05211978706246      0.49597673858414
  C   2.91122713621265      0.87613945296049      0.03328698468124
  N   3.98288450020984      1.70478005784189      0.05295400366779
  H   4.91904652359794      1.34881418492334     -0.01056493506954
  H   3.86726462250305      2.70127409096524      0.03608947940863
  C   3.17827111257139     -0.51567951082358     -0.08992477618911
  C   4.54759849097166     -0.81704193813672     -0.26159418656161
  N   5.67705246702726     -1.06299739307007     -0.39958284951131
  C   2.34494415077175     -1.66713785701848      0.00959016581205
  N   2.97158122078665     -2.86981064200956      0.02672733550883
  H   2.44971613310418     -3.72376062864234     -0.04698811731393
  H   3.96903448427720     -2.93577923862500     -0.06292248446167
  C   0.91916885291077     -1.69916101383649      0.09781699045987
  C   0.35563709496970     -2.98378180131673      0.24337949772734
  N   -0.07150259566633     -4.05926087485113      0.36877565495422
  H   -4.98409096974574      1.48896937095616      0.09998418164167
