31
Coordinates from ORCA-job ./opt_b97-3c_parallel
  N   -3.54091810541771     -4.20219302869073     -0.00158727815082
  C   -3.03662388273871     -3.15591958650103     -0.00108755752519
  C   -2.39600067547918     -1.89002239945633     -0.00034812712241
  C   -0.95999462077283     -1.90359667284859      0.00023968176045
  C   -0.21472985494535     -0.78764680472499      0.00085802696726
  C   -0.47573554502733      0.65448998684419      0.00115091871640
  C   -1.73457704713629      1.33124610863030      0.00105190500668
  N   -1.75098756720104      2.66690093831723      0.00168841182087
  H   -0.90890281643124      3.21980294637423      0.00185184381563
  H   -2.62589695810141      3.16656500136023      0.00153326081049
  C   -2.95727204452888      0.61783034176339      0.00041244187381
  C   -4.11431332397028      1.43108244496972      0.00041548556292
  N   -5.02364973826784      2.15677948887123      0.00058878463021
  C   -3.21124860028785     -0.78236147836071     -0.00025202315248
  H   -4.26876538256994     -1.00985819188869     -0.00075209854474
  C   0.89663175609354      0.95902973058801      0.00168783298358
  C   1.21599371057825     -0.47071383294520      0.00150636091873
  C   2.37323326696548     -1.16765908995491      0.00191571041293
  C   2.33467276570992     -2.58179168961985      0.00157446272380
  N   2.37449547489260     -3.74296716524568      0.00170290956668
  C   3.69426269569288     -0.50687616255692      0.00304144487661
  N   3.98328035428694      0.77219695558389      0.00291782816212
  C   3.20135940102825      1.85734776559521      0.00220150928118
  C   1.82220046922875      2.02830119354982      0.00187315786858
  C   1.34803091185825      3.35913475908833      0.00147123398091
  N   0.90926299817112      4.43622615925836      0.00125052194144
  H   3.77359821901909      2.77815730495588      0.00200806724306
  N   4.75096907350220     -1.33736877140234      0.00443306997235
  H   5.66825916086903     -0.92706563912061      0.00513695934581
  H   4.65863720122812     -2.33760041665863      0.00455231565721
  H   -0.47007784024858     -2.86669016917496      0.00016400699594
