25
Coordinates from ORCA-job ./opt_b97-3c_parallel
  N   -1.21217810800485     -2.99419011182118     -0.00140961061713
  C   -1.50010421733915     -1.67764967976459      0.00208510759014
  C   -0.44852053499768     -0.76534829321786      0.00249660822809
  C   -0.46644711267039      0.70047715799024      0.00403096931594
  C   0.93302479278469      0.76256851211275      0.00472995651450
  N   1.85069536063711      1.68924816935800      0.00662007870014
  C   3.14267077145312      1.30351936795579      0.00728680973279
  C   3.71180545052250      0.02353222174014      0.00648348191156
  C   3.18088258507862     -1.26767807067639      0.00486957448521
  N   1.89516895092432     -1.69120282544534      0.00332359287740
  C   0.95648495591093     -0.79129226287189      0.00318017574472
  H   3.90376849801896     -2.07513714335779      0.00485880731008
  H   4.79648146500909      0.03941884016583      0.00740239829342
  H   3.84460436020415      2.12947237016724      0.00874338034424
  C   -1.53602269096713      1.61072423788473      0.00614150036560
  N   -1.23821963839241      2.92112185835802      0.00757468972945
  H   -0.27911399782638      3.22591431684088      0.00838920122399
  H   -1.98833383955585      3.58852940683092      0.01055056408979
  N   -2.84138361718301      1.30538577098421      0.00689486544186
  C   -3.33829779752927      0.06459583164933      0.00575697813122
  C   -2.84171150212649     -1.23280265893313      0.00385580423525
  H   -3.60390622317401     -2.00317746143461      0.00318095449556
  H   -4.42605679186925      0.08612859074135      0.00664786873133
  H   -1.93354945173867     -3.68989498813544      0.00743077985361
  H   -0.25192896796895     -3.29371932312123      0.00321442087128
