36
Coordinates from ORCA-job ./opt_b97-3c_parallel
  N   5.87890480275987      1.63913065922544      0.52868287020258
  C   4.95251333872758      0.95229103087168      0.36038389302170
  C   3.79167201474700      0.17869249827186      0.16093898587414
  C   4.00132126115628     -1.20004210493804     -0.05587654400310
  C   3.18563647577916     -2.28057412734205     -0.24201751100837
  C   1.76560842741697     -2.36165238571576     -0.22903384813149
  N   1.24911758960483     -3.59073775520200     -0.45115556261108
  H   1.86649470357101     -4.38166890126932     -0.42054436137704
  H   0.27609678613480     -3.79527290568401     -0.30885016087489
  C   0.96473050218082     -1.23148668673757     -0.06065138941017
  C   1.31911889997162      0.23772768919037     -0.01537476499015
  C   2.55552375218683      0.89151064418792      0.16009929670417
  N   2.60932105227789      2.21454100037885      0.38459428803136
  H   3.50556874214873      2.67128071014182      0.43128147791322
  H   1.80967287797692      2.81030415048983      0.26849867400055
  C   -0.03814254151940      0.57595630110372     -0.04593013433249
  C   -0.40091589779400     -0.89539574789381     -0.03015683674409
  C   -1.63740611298274     -1.50104224183012      0.08682185491715
  C   -1.68291823641471     -2.90048562636597      0.26232681175165
  N   -1.75703436768934     -4.04976188623039      0.43029646418784
  C   -2.90928104109262     -0.83975267464817      0.12346121048326
  N   -3.99356792453631     -1.64904095314528      0.24709177393034
  H   -3.88115467755125     -2.62447079414824      0.45429669448718
  H   -4.90904358336794     -1.26112332824555      0.38627668345846
  C   -3.15559229452767      0.55378806935198      0.01704840042048
  C   -4.52604696716451      0.89038348883976      0.08547522792781
  N   -5.65643747873972      1.16127984816766      0.14879667930954
  C   -2.29555577477017      1.67870647667164     -0.16172685973063
  N   -2.90556626493202      2.87895806484948     -0.35994619131053
  H   -2.37222845926734      3.72823236893757     -0.31370574835969
  H   -3.89819419946598      2.97023011244557     -0.24057447814804
  C   -0.87073078513641      1.68413700639711     -0.17086100151884
  C   -0.28166856465581      2.94847180496977     -0.37667034691981
  N   0.16665837903294      4.00828926773874     -0.55394385082039
  H   3.69801106188276     -3.22054726658067     -0.40393762404984
  H   5.05477360755189     -1.45333844505390     -0.07540586108080
