32
Coordinates from ORCA-job ./opt_b97-3c_parallel
  N   4.64291210750357      3.50997151001589      0.00127545985406
  C   3.89386100164188      2.62098695050787      0.00090455167586
  C   2.94335403378159      1.56986013363866      0.00040662877057
  C   1.55461002684128      1.97099406358490      0.00030578703303
  C   0.54066330676261      1.09996508071899     -0.00003067028065
  C   0.39666389032124     -0.35872061515901     -0.00045144829685
  C   1.42941083097341     -1.34793166233352     -0.00077190746382
  N   1.08537394921755     -2.64133469592541     -0.00140157162174
  H   0.12684412912593     -2.94560706539270     -0.00110993136508
  H   1.79436329036753     -3.35658195122019     -0.00138232954338
  C   2.79886709378214     -0.99634118075686     -0.00059885274460
  C   3.68993360958817     -2.09189821762528     -0.00100467436850
  N   4.36935824116370     -3.03767068913859     -0.00136094420014
  C   3.42746063934196      0.28804702722258     -0.00002097370951
  H   4.50696992947480      0.21794573436951      0.00008770946458
  C   -1.00831872000336     -0.27706942729810     -0.00046727006856
  C   -0.92703443504382      1.18592686945449     -0.00040955222116
  C   -1.84552838442139      2.15708418341616     -0.00146654362173
  C   -3.26774977650353      1.88642915957372     -0.00447863791005
  N   -4.05078638153199      2.98737288549976     -0.00990753046955
  H   -5.04797250654984      2.86992495690382     -0.01362143709026
  H   -3.66984486291034      3.91387291490908     -0.01504103821592
  N   -3.91858240925777      0.75011285814839     -0.00243751179143
  C   -3.49059192412567     -0.52979711953522      0.00214955204699
  N   -4.53116361844893     -1.39480175272815      0.01060529082124
  H   -4.40661046571348     -2.39037014796925      0.00253711039405
  H   -5.45726063290512     -1.01237579487869     -0.00214660937796
  C   -2.17736593718404     -1.06870239756194      0.00005349426399
  C   -2.07045884280727     -2.46637270989843      0.00039410858806
  N   -1.99495547548763     -3.63064071937625      0.00040346583279
  H   -1.52531716113121      3.19163568338298     -0.00158250547139
  H   1.34404890733803      3.03176547445079      0.00056388008705
