31
Coordinates from ORCA-job ./opt_b97-3c_parallel
  N   -4.98196363890369     -2.01734066884141      0.04675863593318
  C   -4.06998660065576     -1.29075893055088      0.03463559675970
  C   -3.01458910270264     -0.35893649384413      0.01911795954114
  C   -1.72725783761092     -0.87118140943336      0.03194138137835
  C   -0.57768791494685     -0.10721576959277      0.02031449780884
  C   -0.44414363803932      1.36460608275261     -0.01261464272345
  C   -1.37302619975231      2.34020098103870     -0.03646190924483
  N   -2.72672295197223      2.19899430310074     -0.03251677315735
  C   -3.41349990696231      1.07995679119737     -0.00856759394424
  N   -4.74956085243221      1.26447761119703     -0.00930517257216
  H   -5.40547975441297      0.50386330432012      0.00407503904500
  H   -5.08110412331928      2.21224132185518     -0.03006804950884
  H   -1.04912709872751      3.37620065824178     -0.06139597496194
  C   0.99777470893681      1.20536557633079     -0.01237319319352
  C   0.81971826865154     -0.26630814773519      0.02368898679532
  C   1.76541585299322     -1.29093199040512      0.02257401601951
  C   1.29126564335278     -2.61943622554583      0.01120006629835
  N   0.92041387883596     -3.72222305688708     -0.00530979802627
  C   3.16706507561696     -1.08633865172545      0.02070504641311
  N   3.96473133945610     -2.20069935414695      0.09588450659602
  H   4.91204542091428     -2.12012484090375     -0.22578790480839
  H   3.54232864846004     -3.09665656563608     -0.08094598142652
  C   3.85190457937916      0.14792992653598      0.00844782919598
  C   3.43993364935958      1.47090159969216     -0.03083427935378
  N   4.41768560368293      2.43837433991330     -0.10456429626593
  H   5.35461591820138      2.17559385714031      0.14602507859507
  H   4.16903947214965      3.36539267451864      0.19167705534785
  C   2.10249560520591      1.97543748304745     -0.04859565880450
  H   1.98330593482696      3.05168313453314     -0.09901550180716
  H   4.93065365707205      0.03076039699307      0.04003081702882
  H   -1.63296687135734     -1.94994262656036      0.05232950294264
