29
Coordinates from ORCA-job ./opt_b97-3c_parallel
  N   -4.88890677345070     -0.08590175051265     -0.10537187439867
  C   -3.51579323258622      0.06563572106830     -0.04859331113363
  C   -3.06377372866179      1.39718804888036     -0.05469123972085
  C   -1.75523218742007      1.88938451499347     -0.05867800913490
  C   -0.62775674237641      1.12018183819509     -0.05185384891181
  C   -0.47369469886771     -0.34584712809270     -0.05241789736436
  C   -1.42885450640063     -1.37715964014764     -0.05176912586659
  N   -0.93508989069293     -2.64436784456335     -0.09674944162018
  H   -1.52733048117352     -3.41765523945528      0.14507996013371
  H   0.05381469228266     -2.75929570345006      0.05822610459071
  C   -2.80272593801125     -1.15876846399294     -0.03779720200334
  H   -3.41934877193757     -2.05060447850834     -0.07307146370027
  C   0.91383440724362     -0.24642393014144     -0.01453965857526
  N   1.91160038282852     -1.11183077782577      0.00071457110385
  C   3.18316289617558     -0.72295186185434      0.04295566968634
  N   4.10015512385028     -1.76764807964302      0.12726971099355
  H   5.00122907896238     -1.59478198719255     -0.28583737502706
  H   3.70720051792511     -2.65013168161482     -0.15655140265805
  C   3.73562241367995      0.59237770986033      0.06889810479388
  C   3.15285128535351      1.83661294524876      0.04628753188426
  C   1.78146878837735      2.19886951189022      0.00362064545475
  C   0.79616547145196      1.27305800057402     -0.02178024909041
  H   1.53939511828345      3.25574795524248     -0.00526511968062
  H   3.85068293170339      2.66556905984306      0.06886377843235
  H   4.81898438375585      0.60496864793531      0.12579765252459
  H   -1.64157560040138      2.96785493548208     -0.05116929416955
  H   -3.84822140101872      2.14471396097626     -0.06356765590507
  H   -5.26501734559134     -0.95654533158927      0.22678588917599
  H   -5.44101086018344      0.71170457389441      0.15679964488659
