26
Coordinates from ORCA-job ./opt_b97-3c_parallel
  N   -5.25585949314255     -0.99888610095294     -0.01345922515060
  C   -4.09549139357047     -0.92041494342421     -0.02702788177122
  C   -2.68920111493877     -0.75413276968734     -0.04085936450427
  C   -1.95620087710247     -1.97961805310611     -0.07392799520264
  C   -0.61267175468999     -2.23272731802608     -0.10837474120072
  C   0.37057901379518     -1.24484012316173     -0.11825035441205
  C   0.20126816743739      0.21893904314943     -0.06192814953968
  C   -0.88242320231359      1.03434677757941     -0.01453685160236
  C   -0.64786700835612      2.43202225252111      0.04401517282997
  N   -0.49641535487130      3.58210449075312      0.09366902479405
  C   -2.26919865708799      0.58924040205218     -0.01098130643966
  N   -3.19325142780624      1.57070392272712      0.03274540126822
  H   -2.92655574517807      2.53842604736213      0.04778668295056
  H   -4.17483525921813      1.35519874309494      0.04473682596733
  C   1.65224656380438      0.38016370656388     -0.05344255689287
  C   1.76504276136401     -1.09209522169572     -0.11465855737844
  C   2.92049854244522     -1.82601672468730      0.23322341182226
  N   4.12884073296671     -1.35330199065699      0.29326057600215
  C   4.50102189027269     -0.08948230444125     -0.14730571642601
  N   3.94316533662653      1.07294788612324     -0.14642548769673
  C   2.60323657730454      1.32246761805334      0.07634009272720
  H   2.35161239050011      2.36065187853644      0.24874586180492
  H   5.52504615803030     -0.09772425996693     -0.51336394071145
  H   2.79691234932211     -2.85791550583402      0.55906609061245
  H   -0.30261546784627     -3.26934569820977     -0.13766352828297
  H   -2.59632814284751     -2.85135931826570     -0.07387466216714
