25
Coordinates from ORCA-job ./opt_b97-3c_parallel
  N   5.38302168212774      0.36624117135426     -0.03831881719331
  C   4.22132035495746      0.39553508014343     -0.02919109098177
  C   2.80208905237339      0.36283204624344     -0.01020879921704
  C   2.21272638945564      1.61418929730813     -0.03854421782197
  N   0.91199159762509      2.02815023417175     -0.04278786234718
  C   -0.00544194350140      1.13223576825666      0.05349797582465
  C   -0.00139481691796     -0.38770367955817      0.16682602282392
  N   0.94455209716420     -1.31845515175362      0.12767597818744
  C   2.21884399422801     -0.98704166544453      0.03914831737863
  N   3.09092955534906     -2.02227013113395     -0.03940047749544
  H   2.72356814006751     -2.94108457169414      0.12690597818263
  H   4.08125608618377     -1.88582835601548      0.05054692612970
  C   -1.38236475941041     -0.36805301826462      0.19685952621595
  C   -1.45147565535269      1.09653491357601      0.06489587781075
  C   -2.52233410241959      1.90851692298701     -0.09381927662536
  N   -3.82358683942015      1.51297680424078      0.01456317625338
  C   -4.25730879186729      0.28016785769316      0.09662287263683
  N   -3.74082416805890     -0.97259244956994     -0.05091539592464
  C   -2.46231952799147     -1.28726427448102      0.01046324234979
  N   -2.12900405336699     -2.57724440632084     -0.13127325603650
  H   -2.85341762424009     -3.25035571846699     -0.31327146167211
  H   -1.16390580624097     -2.86107084400654     -0.11472114260516
  H   -5.32669763987458      0.22668501349534      0.28625887072829
  H   -2.37572965786235      2.96531596767620     -0.28255347282878
  H   2.91380453069335      2.43910397586341     -0.07482867917300
