32
Coordinates from ORCA-job ./opt_b97-3c_parallel
  N   -5.58307158784793     -0.05520019428825     -0.04966438553313
  C   -4.42069381699761     -0.04067742788483     -0.01082904114569
  C   -3.00631954948471      0.05066751158088      0.02188452708813
  C   -2.34615448180495     -1.19962625606887      0.10399813012373
  C   -0.99476558944240     -1.52230337646625      0.10391274619140
  C   -0.69180746593689     -2.90473107496001      0.18716127934309
  N   -0.40372509464492     -4.02895556244848      0.25873721014279
  C   0.05823185158276     -0.59834158443150      0.04450532855458
  C   -0.06208816047093      0.90340057598738      0.02949897191511
  C   -1.12156942029477      1.73571462341028     -0.03090434454326
  C   -2.49978921891123      1.36383193587026     -0.04411483206071
  N   -3.38097047896083      2.41458177130922     -0.06884910830902
  H   -4.35064393480824      2.22201396356389     -0.25855090875260
  H   -3.05076734869036      3.28966427422008     -0.43338940255525
  H   -0.93372984813606      2.80183462189064     -0.09393548619698
  C   1.36793433870531      0.99782443439640      0.01550246895974
  C   1.45067701383195     -0.47935559718210      0.00466916936834
  C   2.60402707332722     -1.31245015228178     -0.07509617791322
  N   2.44951069265729     -2.65113287904929     -0.13283877027562
  H   1.55780298044977     -3.09996820080265     -0.01133895939414
  H   3.25664167562632     -3.24686925570211     -0.12187052977220
  C   3.89511096280662     -0.78646588674287     -0.13036278250669
  C   4.33389970919612      0.54407776504830     -0.11020871531236
  C   3.69706986277669      1.75843981340792     -0.03564823065836
  C   2.30187182484544      2.00770645512847      0.03981560242271
  N   1.89652040966685      3.32751520939911      0.08827359850403
  H   2.60351449511342      3.98316180246014      0.37542404436168
  H   1.01730236180888      3.49822621250372      0.54424470699748
  H   4.33677368262666      2.63279938150270     -0.03009875500761
  H   5.41459869957900      0.62705195489578     -0.15543107303707
  H   4.68793339791490     -1.52260406057994     -0.19583457457131
  H   -3.01818532388295     -2.04355229928606      0.15644975137221
