26
Coordinates from ORCA-job ./opt_b97-3c_parallel
  N   -5.18242226512935     -1.07791350872475      0.00129616322211
  C   -4.02455231316569     -0.96079789092775      0.00070522786595
  C   -2.62788006297097     -0.74545571389452     -0.00002823015691
  C   -1.84835471851137     -1.96857182803803     -0.00022015723892
  N   -0.57451819101567     -2.21367407355886     -0.00070695174306
  C   0.31359421163019     -1.20098452472707     -0.00072631105221
  C   0.18984426111964      0.25083293337863     -0.00051079793494
  C   -0.86733640586163      1.09636362454882     -0.00048212219234
  C   -0.65435140826016      2.49255722673931     -0.00084377323807
  N   -0.53361123516428      3.64880807656523     -0.00121885733760
  C   -2.25068714850795      0.60629526893389     -0.00024380372822
  N   -3.19141664491355      1.56153875306797     -0.00024083526868
  H   -2.94526555440222      2.53605832671585     -0.00019801555884
  H   -4.16895949587300      1.32200720296423     -0.00000634894442
  C   1.66695162005440      0.35800405293089     -0.00115992050132
  C   1.71064634202271     -1.10218292297921     -0.00225942739783
  C   2.85994280323557     -1.92485862791582     -0.00697303147331
  C   4.11992999051341     -1.42422338190237     -0.00854607414110
  C   4.57651462162740     -0.03509951329152     -0.00287603126956
  N   3.98339578065981      1.10984257142719     -0.00017798540163
  C   2.60808062331361      1.31414985600418     -0.00205938266912
  H   2.31986750457102      2.35675623977865     -0.00256095053640
  H   5.66279839312438      0.04172819232266      0.00007311729842
  H   4.93294730360289     -2.14014884021538     -0.01257541993717
  H   2.72075195588189     -2.99908407787843     -0.00986276921478
  H   -2.47632979828108     -2.85421935062379      0.00000343894994
