33
Coordinates from ORCA-job ./opt_b97-3c_parallel
  N   -1.59602061640460     -3.72056026651289     -0.18699752183443
  C   -1.68651703873032     -2.55946099947283     -0.14894521741928
  C   -1.81137975025165     -1.15692669173364     -0.10044019414437
  C   -0.64523066973573     -0.39290828469756     -0.05528789629300
  C   -0.49698486682666      1.11258417946112     -0.04227777299701
  C   0.91085306180517      0.95508429902710     -0.03915535951928
  C   0.75064524456706     -0.51763446932385     -0.04141831645634
  C   1.78041667319900     -1.47725146025811      0.05284095405503
  N   1.49781225885377     -2.79147671036286      0.14871283606923
  H   2.27437234201280     -3.42741311028056      0.12741453477762
  H   0.56872736853146     -3.15760507591496      0.03907208624722
  N   3.08465626249765     -1.20234585341230      0.08605929843352
  C   3.68683069280061      0.00328215613803      0.03339476486952
  N   5.04311936665422     -0.13170219173388      0.03196092411015
  H   5.42090762957998     -1.02800514436833      0.27587232560142
  H   5.59200224207423      0.69358775528964      0.18606929040497
  N   3.31222957447038      1.28264791207326     -0.04241687795282
  C   2.04721822517153      1.73260185559275     -0.07770896120960
  N   1.95187937420309      3.10799831008228     -0.11828156481666
  H   1.13849503662884      3.48061725128825     -0.57695780674616
  H   2.81333683178053      3.54978667650150     -0.39590117789274
  C   -1.42225036587080      2.10299662078222      0.02037952666353
  C   -2.82398978477860      1.91076118989893      0.04566709564663
  N   -3.58247387322368      3.07630374886677      0.07264324528285
  H   -3.12893936857484      3.87689735403930      0.47881354538035
  H   -4.52761586460794      2.97621758873208      0.40189038870650
  C   -3.52453633789592      0.71006162007072     -0.01778761992815
  C   -3.13531425544892     -0.63303562371467     -0.09600969273289
  N   -4.16893024370453     -1.54631935093521     -0.23256976390194
  H   -3.96444498603827     -2.50512806323047     -0.00444780778777
  H   -5.06450852351030     -1.24992044154967      0.11306660646584
  H   -4.60279070496519      0.83944144987952     -0.03124399347495
  H   -1.07647103416207      3.12975659607864      0.07803368169314
