30
Coordinates from ORCA-job ./opt_b97-3c_parallel
  N   -2.14098825343047     -3.31819702902915     -0.12342962742518
  C   -2.07319011915764     -2.15845314741493     -0.10413753135320
  C   -2.03964071818849     -0.74148229626051     -0.06598100191077
  C   -0.81354067034114     -0.14199746606767     -0.03037651494234
  C   -0.39578413246576      1.29560698194664      0.02590542902535
  C   -1.19241916327936      2.42566222359133      0.10600546851444
  C   -2.57512455191192      2.40325953041145      0.11329244055702
  C   -3.47638690936216      1.33071307879244      0.04333593542851
  C   -3.30625265236890     -0.04373199910540     -0.04458697846458
  N   -4.43338433042828     -0.83044136957660     -0.17801422957637
  H   -4.35332721731307     -1.80383190345011      0.06471234891394
  H   -5.30113219419099     -0.41763346171050      0.11490109554001
  H   -4.51731522715182      1.63781657379170      0.05127934080601
  H   -3.05375263982072      3.37197843537958      0.18913955451530
  H   -0.71941709382966      3.39770026351742      0.19174003395353
  C   0.94588783796866      0.88938693439177      0.01100722785782
  C   0.56868494938584     -0.53256869811316     -0.03670950007823
  C   1.30937375243247     -1.67557382617887     -0.05594472403944
  N   2.64730612533634     -1.78696986065430     -0.00785134166505
  C   3.51114251430061     -0.76932938983900      0.00860219268532
  N   4.80574533608733     -1.20996844463057      0.03600067738340
  H   4.91723524575607     -2.19247110180800      0.21735774452095
  H   5.54086814056603     -0.59966336499754      0.34234049551743
  C   3.38041618479765      0.65117829559042     -0.04535081750675
  C   2.23741093070303      1.43818251265341     -0.02830559256555
  N   2.35882054481946      2.80403341732307     -0.01335674552736
  H   1.56531608032494      3.32685754188317     -0.33908540852445
  H   3.24151483992769      3.19064662158789     -0.30008149629207
  H   4.31972818395384      1.19084830374113     -0.09731709220332
  H   0.78898055298024     -2.62642891466478     -0.09708568714443
