30
Coordinates from ORCA-job ./opt_b97-3c_parallel
  N   -5.69914416980161     -0.72382347058979      0.01967992407061
  C   -4.54604761562509     -0.56585979223937     -0.00433481848010
  C   -3.15510127172837     -0.30655194966935     -0.02529822063734
  C   -2.35321724167665     -1.49786766560967     -0.02603036126391
  N   -1.05269042658365     -1.69076935732799     -0.02660642488455
  C   -0.21383916873526     -0.65953530402338     -0.02453019606192
  C   -0.37749537376071      0.84349717746567     -0.01702599327039
  C   -1.48379156435199      1.60395910986319     -0.02884123171379
  C   -2.81224903560122      1.06318857144808     -0.03663994478341
  N   -3.81007674872380      1.99285326950355     -0.09732928088201
  H   -4.76241104918934      1.70432364372188      0.05185207145298
  H   -3.59777535420525      2.94008666496935      0.15474598922944
  H   -1.39387440207990      2.68504496880719     -0.04189110272783
  C   1.06432313686283      0.95764120281429     -0.00726920140958
  C   1.16328520488610     -0.50329162073098     -0.02065383711172
  C   2.29300700270659     -1.36111663880079     -0.00212975841940
  N   2.00640905610624     -2.68428875432930     -0.04237517917972
  H   2.71762725388721     -3.37415069598305      0.11296868863773
  H   1.04284356745101     -2.97038996230136      0.03045026048485
  C   3.59518514036584     -0.89987112046858      0.03799778631888
  C   4.08643797793978      0.43899797785418      0.04653675112638
  N   5.46392792942050      0.51691154568350      0.12993303152309
  H   5.98798465652259     -0.27466395989128     -0.19957914529906
  H   5.88164353469784      1.39829486362286     -0.11198588905118
  C   3.40988765656974      1.66265984733810      0.03116080818489
  C   2.02997201945946      1.91516112071752      0.01691959505479
  H   1.72611749837602      2.95582444885156      0.01998639928229
  H   4.04695622143235      2.53887698291295      0.04631840350987
  H   4.36223396076219     -1.66611445266544      0.07539738373121
  H   -2.94131530628344     -2.40865282004342     -0.02016396893106
