31
Coordinates from ORCA-job ./opt_b97-3c_parallel
  N   4.97917043386268      1.76147512971722     -0.17326287405782
  C   4.07646809653903      1.02279504204991     -0.11815080573444
  C   2.97639571297768      0.15471269205739     -0.04989546210280
  C   1.71597714686523      0.79506343016166     -0.02344887993990
  N   1.66523150862610      2.13545509737932     -0.05067528991583
  H   2.50905766152744      2.68222746058626     -0.07787065622457
  H   0.79369692114244      2.63557011890027     -0.03770685260477
  C   0.50528187893069      0.05977729565268      0.01914479553294
  C   0.34809419434216     -1.41130253380345      0.00683707907006
  C   -1.07566538538134     -1.22412889622036      0.00714987774887
  N   -2.09112213695180     -2.01236128260591     -0.01442306425844
  C   -3.36283291890121     -1.48585304722741     -0.02649879043825
  N   -4.29280495939758     -2.46143693224668     -0.09293544620658
  H   -3.99856676101626     -3.41939971587477     -0.07595067222937
  H   -5.26600177194916     -2.22403313176090     -0.06018893348745
  N   -3.84589711919408     -0.25882174942924      0.00936624704503
  C   -3.25005581024082      0.93624674756412      0.05520984500269
  N   -4.13749268579927      1.96130374805327      0.14627919231369
  H   -3.84671003068418      2.91360460801884      0.01667978000354
  H   -5.10244370646967      1.73591481194780     -0.00994142596081
  C   -1.86213678011889      1.26042089017412      0.04273921800282
  C   -1.50446782804285      2.61786749117681      0.05986991427831
  N   -1.21157503234916      3.74658871051578      0.06843962970542
  C   -0.87371583486065      0.27185219043206      0.02251554191748
  C   1.22045912092387     -2.44305784730541      0.00651982918952
  N   2.56707393716669     -2.37979081782403      0.03833436810094
  C   3.29663239513668     -1.27917664287898      0.03211124748489
  N   4.62173761289733     -1.53826883194069      0.11033721764387
  H   4.89120664567060     -2.50506584022845      0.12933472936749
  H   5.32616521121565     -0.82364785680410      0.09101075308822
  H   0.81943726313271     -3.45075157393709     -0.00875919773473
