32
Coordinates from ORCA-job ./opt_b97-3c_parallel
  N   5.90423392563224      0.06879470830512     -0.03085009096948
  C   4.74149948257790      0.05143098184473     -0.04087524766577
  C   3.32392673528789      0.10451746369172     -0.04736101305436
  C   2.70205700768317     -1.15430994307816      0.01405420768972
  C   1.35399810990741     -1.51539431420618      0.04179189251513
  C   1.06638903211371     -2.90261901032030      0.09176306846326
  N   0.78043624535116     -4.02859705585726      0.13423766137856
  C   0.28860464155939     -0.61671885621418      0.03021334543914
  C   0.35851049492935      0.89430046341406     -0.00019276764522
  C   1.40533215600131      1.75270825714645     -0.09165639845730
  C   2.77943556623713      1.41546107905994     -0.11866826542472
  N   3.64607621902809      2.46606677911548     -0.27004799700987
  H   3.31806706468187      3.38481463642927     -0.03600432339613
  H   4.62817043804667      2.31314735560769     -0.11447752106193
  H   1.18354108799423      2.81105099476529     -0.18331139336436
  C   -1.05910387272021      0.93314895142012      0.01822783250923
  C   -1.10659033019574     -0.53774919617437      0.04210267284210
  C   -2.26581722693056     -1.35759193547011      0.03047824974419
  N   -2.15166226659012     -2.69389415223804      0.07814957968570
  H   -1.26655148128880     -3.17096603994706      0.11076183324218
  H   -2.99682833412101     -3.23550921669801      0.05060240726121
  N   -3.51355833073013     -0.90763694870780     -0.03312705645752
  C   -3.94298647684585      0.37142928561832     -0.06526887240202
  N   -5.29307720712489      0.42908119224183     -0.17472529546172
  H   -5.73088102299612      1.32108362639840     -0.30659021430873
  H   -5.80280155855825     -0.41852600874943     -0.33605051325376
  N   -3.39258586236220      1.58678368071907      0.02471331707292
  C   -2.08504428979056      1.86229903698308      0.07304829744556
  N   -1.79853887499640      3.20288661988042      0.13572678846536
  H   -2.58835391909757      3.77600964414103      0.38229858355842
  H   -0.93459120200270      3.46550327134056      0.57577061469276
  H   3.39439469551961     -1.98314990886169      0.04829691972743
