24
Coordinates from ORCA-job ./opt_b97-3c_parallel
  N   4.42698265667444      2.11782540361618     -0.00016957771044
  C   3.47519925457977      1.44597884114332     -0.00050152147419
  C   2.37015859588821      0.57110818795352     -0.00095545277357
  C   1.09881049310334      1.15154666283253     -0.00071239896120
  C   -0.07649640102396      0.45189318162555     -0.00107801488535
  C   -0.30526651209164     -1.00745523202171     -0.00147176569318
  C   0.60094289217653     -2.03670783544197     -0.00158579311792
  N   1.93018888537558     -1.96335790521879     -0.00193003110360
  C   2.68896411323465     -0.85407085349509     -0.00193291813059
  N   3.99617604672859     -1.15100624324707     -0.00311139165228
  H   4.24693827949789     -2.12416894636739     -0.00363723604513
  H   4.71391601578831     -0.44633292021117     -0.00326145258862
  H   0.22185652910831     -3.05513590866419     -0.00145380497132
  C   -1.71273547860286     -0.81455481611624     -0.00112422778713
  C   -1.47536810992834      0.68140977610120     -0.00073952916971
  N   -2.26059115267894      1.72549780952099     -0.00019198739478
  C   -3.59621385309874      1.57860480624042      0.00006274595431
  N   -4.41355083262475      0.52146904412892     -0.00029628032459
  C   -4.13606117812636     -0.77446401923531     -0.00088090954829
  C   -2.90781273477252     -1.46858166449077     -0.00123132895932
  H   -2.94901015221731     -2.55217874510076     -0.00163198923966
  H   -5.02295667389991     -1.40325385017265     -0.00110642382799
  H   -4.12625262816558      2.52421548126150      0.00063189465445
  H   1.05443936287528      2.23338539405898     -0.00015459534992
