29
Coordinates from ORCA-job ./opt_b97-3c_parallel
  N   4.80055943846623      2.07524827353129      0.02247110008258
  C   3.91917885906298      1.31306160569908      0.03403194336720
  C   2.79700737880827      0.45793743614578      0.03775784906938
  C   1.50817737890271      1.11505069781406     -0.00662664172519
  N   1.48152245993268      2.47435884643732      0.01252822270935
  H   2.33808566604941      2.97639008267771     -0.15355143268890
  H   0.64240491126511      2.93672530995511     -0.28318090491544
  C   0.35112006302532      0.37512401612985     -0.02538455881399
  C   0.16591492789081     -1.08779112014546     -0.03481393164582
  C   -1.22365971736428     -0.94667653661293     -0.05431875374477
  N   -2.24139992526094     -1.77642271099312     -0.06830497635483
  C   -3.49188518961148     -1.30264359043645     -0.07111036596274
  C   -4.00518644493826     -0.00401722536998     -0.04375967947796
  C   -3.40604752614797      1.26045967752281     -0.01047430982048
  N   -4.23969958879968      2.36470765818692     -0.03344508970723
  H   -5.19535424467194      2.21005598082556      0.23788652487720
  H   -3.86568408814932      3.21970859784399      0.34024277838698
  C   -2.01048351221901      1.53549141714802     -0.01215354505522
  C   -1.06242858013856      0.56900453871504     -0.03960369975358
  H   -1.72175083593604      2.58201456998100      0.01635314750716
  H   -5.09045222090510      0.01766631582024     -0.04706041517629
  H   -4.24725261853072     -2.08116743394199     -0.08781480554850
  C   1.06922285214460     -2.15065029970441      0.01422040810332
  N   0.57823640221669     -3.39986573984193      0.01879025663959
  H   -0.41663332168548     -3.55379837613581     -0.00858260164544
  H   1.21917701529253     -4.17191919478527      0.05714739795461
  N   2.41307449096247     -2.05498159500903      0.05905060164914
  C   3.09144693038484     -0.91768477034448      0.06264220822308
  H   4.16328121285419     -1.09711529141297      0.08833473616678
