28
Coordinates from ORCA-job ./opt_b97-3c_parallel
  N   3.80807827456887      2.16841561013609      0.02981482223799
  C   2.83090852466907      1.20100197039514      0.03734473849349
  N   3.29712201340865     -0.03115284527817      0.01884551400191
  C   2.67583398280680     -1.22393290441619     -0.01609448198205
  N   3.55551711156041     -2.27822189386338      0.00284551882992
  H   3.18530542964913     -3.16431301302714     -0.29006607521338
  H   4.49761705167790     -2.06847029982706     -0.27259707389551
  N   1.38863265093894     -1.58990915197161     -0.01710560490111
  C   0.44004170307084     -0.67618219638278     -0.00336316561189
  C   0.42915009057029      0.85000830451152     -0.00447776387356
  C   1.48345476969307      1.69146461510673      0.01899343914619
  H   1.34194225711507      2.76735079048568      0.02891229578271
  C   -0.99681706936840      0.80551834230281     -0.00134815011818
  C   -0.94810359441144     -0.67615397902558      0.00347630587115
  C   -2.00147018008573     -1.60048593520745      0.03872697169384
  N   -1.69765371303985     -2.90923494563588      0.04228478588285
  H   -2.44514084917315     -3.57676885441793      0.10905431799845
  H   -0.73778809556163     -3.20838344500588      0.06438546145285
  N   -3.30664622726203     -1.30105321474313      0.06820185208271
  C   -3.81830604686984     -0.05551368988569      0.07032899416758
  N   -3.39620021032582      1.19120735808615      0.03678711550566
  C   -2.09596368515055      1.62199878708145     -0.00796763651512
  N   -1.99565489489937      2.98759864387739     -0.01891648172808
  H   -2.85475831590875      3.45739250544959     -0.25168612722968
  H   -1.16057296017548      3.39513149582131     -0.40061182868945
  H   -4.90544662236297     -0.09858820297315      0.10537459375057
  H   3.57947060073642      3.08146925021887      0.37990629169986
  H   4.73068648112960      1.83715948348887      0.25414862606024
