30
Coordinates from ORCA-job ./opt_b97-3c_parallel
  N   5.62176665281007      0.70405850213834     -0.02527369432527
  C   4.55317764313336      0.23879515425398     -0.00117622908961
  C   3.22933217951709     -0.24309845533780      0.02090210855799
  C   2.22320480224489      0.75048899569470     -0.00064230582753
  N   2.57187316355405      2.05623463342517      0.00236461957660
  H   1.88447018762899      2.74823408351096     -0.22732921798712
  H   3.53706417924363      2.31652974706476     -0.11781939474478
  C   0.84980370106476      0.43778644924356      0.00675275265130
  C   0.17116424557889     -0.86835079245888     -0.00954126454743
  C   0.61026683877874     -2.14452673506300      0.00963314650540
  C   1.98812731340705     -2.49416978577210      0.04491995964508
  C   3.07476441583458     -1.66620147347445      0.05152953220740
  H   4.02846366695104     -2.17933161845779      0.07407914224220
  H   2.20820994368796     -3.55290826160839      0.06656549131578
  H   -0.11464044326187     -2.94770982751327      0.00237150896625
  C   -1.09995858818884     -0.16309421173336     -0.01856842779294
  C   -0.37500375689655      1.13036333155932      0.00906701567879
  C   -0.90747418646536      2.41333152869324      0.06198598434338
  C   -2.25763510230774      2.69277016113762      0.06398672013902
  C   -3.37685279919945      1.84112630080303      0.01174144672168
  C   -3.51227174653008      0.46545655162712     -0.04883881420712
  N   -4.77229770709970     -0.07034994617756     -0.16973031004024
  H   -5.54765309880630      0.52448863740360      0.06124205449559
  H   -4.90907057714499     -1.03638650232966      0.07473913130194
  C   -2.41716708120159     -0.49192112855205     -0.04865415649074
  C   -2.74953681617799     -1.87118437143902     -0.05998177174848
  N   -3.06075952632651     -2.99010459576661     -0.05818253257036
  H   -4.32378409820023      2.37077970794727      0.01142605219467
  H   -2.51316764066798      3.74356268141745      0.11771207180231
  H   -0.23769175185992      3.26315169406382      0.12657282762619
