32
Coordinates from ORCA-job ./opt_b97-3c_parallel
  N   6.40545375433178      0.23947074830653      0.00286907352914
  C   5.24485400367672      0.23587302752866      0.00182048550495
  C   3.81865498297776      0.24486425346873      0.00106990826749
  C   3.26144232016898      1.54652276658897      0.00076781164265
  N   1.98809920744051      1.94237948400180      0.00022525183949
  C   0.99820276499225      1.08900301266719     -0.00003736693773
  C   0.84159694583800     -0.43749688863561      0.00001843420325
  C   1.85776594106042     -1.36851486872386      0.00029887305372
  C   1.53866510043425     -2.75131280936880     -0.00003967909844
  N   1.22701495928276     -3.87063516759957     -0.00033426982345
  C   3.22699539552914     -1.02211101958957      0.00081781730337
  H   3.91509741402861     -1.85498256913694      0.00106089362877
  C   -0.55680212816969     -0.24781582907738     -0.00071935480838
  C   -0.38880341907425      1.20856723178994     -0.00067274550755
  C   -1.27939627592105      2.29223497259598     -0.00196591800769
  N   -0.72575417289380      3.52368203864996     -0.00234696577926
  H   0.27797166882695      3.61297315721425     -0.00136343691049
  H   -1.28604656882388      4.35443190974326     -0.00257864366452
  C   -2.65963765236680      2.12948793641399     -0.00303730059109
  C   -3.42597783417805      0.95410893537019     -0.00260139760684
  N   -4.76709739780699      1.16190899633229     -0.00314118030398
  H   -5.42295367346090      0.40172212351928     -0.00447258080201
  H   -5.13767560021456      2.09198433172417     -0.00558768108234
  C   -3.03149034907582     -0.43195302804405     -0.00133544213533
  C   -4.09301623988021     -1.35436785247225     -0.00104215451686
  N   -4.96851359164773     -2.12451825384716     -0.00072135600602
  C   -1.73378712259694     -1.02047786640207     -0.00060436057740
  N   -1.64381001802335     -2.35998430736633      0.00028597858858
  H   -2.46822468747604     -2.93512523045838      0.00003737298374
  H   -0.75704387518633     -2.83428100226935      0.00053266939418
  H   -3.23831078365402      3.04591456743570     -0.00406371803043
  H   3.98034435036228      2.35559678754044      0.00103129365045
