25
Coordinates from ORCA-job ./opt_b97-3c_parallel
  N   1.62063357176478      2.62727423785449      0.03342954953154
  C   1.78924408875582      1.27258504564338      0.00995973061303
  C   0.62352778688567      0.47463769267607      0.00947693259152
  C   0.50871181277408     -0.99318441471143     -0.02258038436322
  C   -0.93569686055625     -0.85475941046747     -0.03505948246833
  N   -1.91689613558704     -1.68005789517070     -0.06470522436659
  C   -3.21298642311904     -1.22657372487529     -0.06088189313371
  C   -3.72286683180070      0.04886143309110      0.00034993252308
  C   -3.10696718345925      1.32233831335251      0.07115006400749
  C   -1.75857606682362      1.61936012790895      0.07572979797464
  C   -0.76444012652136      0.65351539803136      0.00659102311133
  H   -1.48784195669150      2.66820589980502      0.15520611044521
  H   -3.78661586990385      2.16290624065608      0.13138094512586
  H   -4.80738884174506      0.07856099066273     -0.00061674721294
  H   -3.93821328256099     -2.03000487603107     -0.10639284817833
  C   1.41841980252198     -1.99986488439863     -0.01225985966867
  C   2.81471522153982     -1.80124833023799      0.02590148133115
  C   3.49510688457206     -0.60061967541559      0.04665374205035
  C   3.07741769364821      0.74123974240483      0.03024225421269
  H   3.88074065957723      1.46968636605542      0.03658148345097
  H   4.57472344768243     -0.70509817810974      0.06846494171103
  H   3.42804184289100     -2.69272631401954      0.03681550904090
  H   1.04491314014667     -3.01667033153661     -0.03184362418259
  H   0.73926915217545      2.99021959027248     -0.28231692587485
  H   2.41315372703345      3.20698204575963     -0.18091000757155
