31
Coordinates from ORCA-job ./opt_b97-3c_parallel
  N   5.52904701176452     -0.05312515105877      0.12107228193948
  C   4.36641013200316     -0.00554712899440      0.04612883939780
  C   2.95884563391998      0.00569655141226     -0.02655250651397
  C   2.35125568621272      1.33294013748134     -0.05327973378533
  N   3.25591795153817      2.38068885772394     -0.16406129202472
  H   4.18920088841215      2.22147039314269      0.17850938623692
  H   2.89757956079825      3.27878879121103      0.11053765644635
  C   1.01219700476945      1.65182065253312     -0.03463143187636
  C   -0.04804504235667      0.74880666357118     -0.01640829667454
  C   -0.01738586506462     -0.72330983766601     -0.03771651843123
  C   0.98809310358144     -1.61079659000533     -0.06493283242981
  C   2.38527212631598     -1.27515317588678     -0.04612470805974
  N   3.20775761185259     -2.36406300119321     -0.08562488414132
  H   2.82601951002776     -3.25580685332769      0.16866575287781
  H   4.19413146019658     -2.25061351508388      0.07576517697753
  H   0.74834972111165     -2.66742617010599     -0.10243695933737
  C   -1.48260502709778     -0.74444724339468     -0.03171733105265
  C   -1.44981529633086      0.72631352531005     -0.01150200751666
  C   -2.53822660982258      1.62020191445041     -0.02990309865751
  C   -3.84891721467258      1.27154816744493     -0.03956775619572
  C   -4.47076353950635     -0.05512206073875     -0.02085510618942
  N   -5.85504244210196      0.02393086435763     -0.07917272596803
  H   -6.26996245343966      0.83568543170054      0.34699494911195
  H   -6.35371758147931     -0.82200621183499      0.14059286806239
  C   -3.88324968133242     -1.29125589671557     -0.01372629055260
  C   -2.49040020833461     -1.63297179383005     -0.03972880769930
  H   -2.25556546156044     -2.69113880624650     -0.05116718057195
  H   -4.56425572082340     -2.13509379765977      0.00710231591276
  H   -4.55901844252292      2.08835971502905     -0.09024694425859
  H   -2.31671841634828      2.68253959910659     -0.04481618715350
  H   0.76807454519014      2.70884745226757     -0.05395454347278
