30
Coordinates from ORCA-job ./opt_b97-3c_parallel
  N   -3.43315404100779     -3.92840558242813      0.04311120852888
  C   -2.87293259089129     -2.90957701580394      0.03395703623064
  C   -2.15543523709968     -1.68752529870131      0.02183031100768
  C   -0.72228817660410     -1.79782123446610      0.01600059077500
  C   0.10120070994206     -0.73754415847062      0.00903308360916
  C   -0.10628030665796      0.72068352277961      0.01308438806564
  C   -1.29165439964155      1.46396892404436     -0.00707084072110
  N   -1.21426538361086      2.80853166955926     -0.00649345810847
  H   -0.33165813940038      3.26223812417807     -0.14037318454806
  H   -2.04514669964136      3.36952622378188     -0.09598191508439
  C   -2.58041673437965      0.84977412205832     -0.00495587740404
  C   -3.66980372097788      1.74551556669396     -0.03207866052107
  N   -4.51390149140388      2.54828056695725     -0.05864574862024
  C   -2.90717270737224     -0.52676215416771      0.01360442009422
  H   -3.97575243351677     -0.69873798243156      0.01500476874487
  C   1.28415296413364      0.95896804238517      0.02298481182674
  C   1.54126513020677     -0.49945301507133      0.01533998358508
  C   2.66337128876003     -1.24081313188084      0.02183254729110
  C   3.99779755953751     -0.71877110140024      0.02091869999347
  N   4.99722194801003     -1.66619863092243      0.06304910024434
  H   4.77872751057263     -2.58517109008418     -0.27937143418724
  H   5.92842252790796     -1.36544408555738     -0.16590201136558
  C   4.35413218019394      0.62301955033212      0.03941092643546
  C   3.58420726976939      1.79748738403441      0.06683967199327
  C   2.21592507107624      1.98890031091754      0.05953081984268
  H   1.87497574344368      3.01759035683494      0.08990236366192
  H   4.17518346883605      2.70486142375947      0.09089174483175
  H   5.42447128473149      0.80095802766033      0.04237332672729
  H   2.55971956310932     -2.32083432549383      0.03080938763699
  H   -0.30477767512531     -2.79623785989707      0.01904710993403
