28
Coordinates from ORCA-job ./opt_b97-3c_parallel
  N   5.72491108465497      2.03519093059886      0.00260564347899
  C   4.81544854080058      1.31280644452135      0.00215695851032
  C   3.72260675336238      0.40334086836621      0.00148725703433
  C   2.47334470257675      0.95820115582843      0.00079024525928
  C   1.27456613561966      0.20894706745426      0.00005938886880
  C   1.08322876717361     -1.22697291279207     -0.00001906193146
  C   1.91916681762228     -2.27674566073825      0.00045188900433
  C   3.35397449004438     -2.12504886350345      0.00121559987399
  C   4.11532341252642     -1.00757280198280      0.00165497981642
  H   5.18594026163891     -1.15713881091833      0.00223558592385
  H   3.90995971018801     -3.05543650784547      0.00149447474318
  H   1.51438243599579     -3.27903028679455      0.00026478215708
  C   -0.38539616527386     -0.95224585027973     -0.00071665728075
  N   -1.42430833854929     -1.71153870614841     -0.00089736196125
  C   -2.67267251412400     -1.12068407516948     -0.00113198838552
  N   -3.63291672065660     -2.05764321430910     -0.00101787750731
  H   -4.61204816346354     -1.83257108639445     -0.00107387729938
  H   -3.34185007004603     -3.01788688944231     -0.00061783138435
  C   -3.03479556237936      0.24289459942618     -0.00139636013377
  C   -4.42065785842404      0.47462534540790     -0.00108012091752
  N   -5.57447167045278      0.64616089546128     -0.00036514944700
  C   -2.19050524080948      1.44564479330221     -0.00185892287754
  N   -0.87873810638703      1.56375306785301     -0.00115539440710
  C   -0.11538689107373      0.47044193143803     -0.00077085550165
  N   -2.86033653722407      2.61729032406898     -0.00420389527398
  H   -3.86143145905706      2.67783039943409      0.00159216802177
  H   -2.31478815873736      3.45933012598838      0.00005139473223
  H   2.39232386905449      2.03712946126922      0.00078111538400
