28
Coordinates from ORCA-job ./opt_b97-3c_parallel
  N   5.33759106012008      0.75929500230617      0.00079351893625
  C   4.26001588708662      0.31952461780858      0.00051270452716
  C   2.92084678554635     -0.12580616196009      0.00009278408484
  C   2.72168175085051     -1.51971145874025      0.00017189408357
  N   1.69114511128208     -2.34211850305343     -0.00006098874779
  C   0.37597870403440     -2.03397051168616     -0.00051072245872
  N   -0.42079274777886     -3.10926615357641     -0.00057244318223
  H   -1.42594801951449     -3.05522572624118     -0.00086901163546
  H   0.02225364605710     -4.01150875009251     -0.00031444567046
  C   -0.15547370482630     -0.72980462819598     -0.00091537170681
  C   0.56901855343642      0.55019142356169     -0.00084594747489
  C   -0.63642902755971      1.26747752647679     -0.00139247920525
  N   -0.94286737902022      2.53299548341252     -0.00173488776767
  C   -2.22576796082335      2.93729364845783     -0.00228876090561
  C   -3.41428449110843      2.20348283699787     -0.00255240724375
  C   -3.67853120494935      0.84019724146496     -0.00237700687294
  C   -2.76509660088957     -0.23744277799651     -0.00187888189009
  C   -3.28813151343760     -1.55687536731017     -0.00176644465910
  N   -3.66371200661406     -2.65638984907529     -0.00151765336522
  C   -1.39684909007706     -0.06179312084543     -0.00147556572148
  H   -4.72341344976450      0.56113960736726     -0.00265726150704
  H   -4.30093608381940      2.82666993559174     -0.00297478120016
  H   -2.34029987961505      4.01462387530721     -0.00255742815043
  C   1.91565139069429      0.89095823913289     -0.00038989297582
  N   2.25244810165667      2.18743854169923     -0.00037669849926
  H   1.52515825703801      2.88483349653913     -0.00086506950624
  H   3.21506256246190      2.47784593199016     -0.00023034169047
  H   3.66332758953352     -2.06286015594056      0.00052700600509
