32
Coordinates from ORCA-job ./opt_b97-3c_parallel
  N   4.12682885058212      2.25587659412795      0.07311318851008
  C   3.15178370122378      1.25662417667517      0.06367007522743
  C   1.81145134778509      1.71515500688581      0.02121835452005
  C   0.74196468189798      0.87950323358323     -0.03894007996803
  C   0.72263254100202     -0.65126369859476     -0.04462292836419
  N   1.63310381938117     -1.59477310117204     -0.04773345808602
  C   2.94202389714403     -1.30203477644643     -0.01733198132065
  N   3.75162331424142     -2.43533092181682      0.02065860344191
  H   3.26296180915635     -3.25996739761686     -0.28703553028478
  H   4.65703742111196     -2.34096384295092     -0.40785169310070
  C   3.60349014224838     -0.06188102414743      0.04425372745163
  H   4.68396410250794     -0.15602233474236      0.09923502224056
  C   -0.67267004513529     -0.62256454423240     -0.06078734160145
  C   -0.67365478292280      0.85667866531273     -0.05508536896332
  C   -1.75578743686418      1.71123280582282     -0.07698038562130
  N   -1.55238898655345      3.08168767919952     -0.07093596894297
  H   -2.32002057043009      3.62863208824347     -0.42434977768882
  H   -0.67416313351042      3.37574099274549     -0.46326841943271
  C   -3.08266172101072      1.24227001549459     -0.04915420799182
  C   -3.57886261846386     -0.07061755604940      0.01990449470033
  N   -4.95293764910068     -0.17445078564561      0.02835390514550
  H   -5.48757544362926      0.60822013646331      0.35993595969429
  H   -5.29268596406297     -1.08102918976049      0.29861575768133
  N   -3.01882854592759     -1.29720893027442      0.04328130260824
  C   -1.71259238761192     -1.55480935197415     -0.02257221368307
  N   -1.37529507537414     -2.86806051457634     -0.06519923100611
  H   -2.08893991587348     -3.53609760555582      0.16475159989615
  H   -0.40938799981265     -3.11787011131039      0.06875638183174
  H   -3.84714995083808      2.01052832844702     -0.08471778510490
  H   1.66162239791656      2.79035360209464      0.04967468305171
  H   3.83220429173207      3.12631875971046      0.48348404816073
  H   5.02289410969076      1.97141408926027      0.43275415829914
