31
Coordinates from ORCA-job ./opt_b97-3c_parallel
  N   1.90082017476030      3.72692479477275      0.23348482098597
  C   2.14157138713929      2.59245921923420      0.15416589716364
  C   2.42191847178386      1.20559853243301      0.05861301300754
  C   1.38242400475658      0.29699722643519      0.01850157015703
  C   1.49637797700204     -1.20997940750742     -0.04232683607282
  C   0.09439859720583     -1.29224935243724     -0.01720289334800
  C   -0.02640572120893      0.17415993361654      0.03231264470331
  C   -1.15517803615555      1.00672657700600      0.00562078683380
  N   -1.00375872007531      2.34116173479599      0.00211259099734
  H   -0.09821629140787      2.77611338513512      0.04274579769942
  H   -1.80231970143561      2.95136547803415      0.00219550304869
  C   -2.48915188364098      0.49478213833627     -0.04778994561531
  C   -3.49853364920823      1.46924440848708     -0.12905982757540
  N   -4.33435680757633      2.28014773171558     -0.19733190587331
  C   -2.94776105960724     -0.86125368616960      0.00148684968543
  N   -4.30118878504990     -1.01463055278659      0.04074963465668
  H   -4.90810647490253     -0.22821625136240     -0.11144936086649
  H   -4.69623073593211     -1.91953776858259     -0.13090651254835
  C   -2.23122369988117     -2.06714130390838      0.04899937495501
  C   -0.86250801080693     -2.30909005821839      0.03112115685920
  N   -0.42880493837655     -3.61049892836577      0.02086627833930
  H   -1.08666326086056     -4.31526777395771      0.30508794634917
  H   0.50377037776347     -3.77760578422782      0.35356150155576
  H   -2.85479611879218     -2.95157197109493      0.11370703998017
  C   2.61401475966419     -1.99545708612452     -0.14559796598047
  C   3.93099576569988     -1.52191585764973     -0.16698884869206
  N   4.43206061393263     -0.29062228723488     -0.08011647580666
  C   3.80643396905074      0.86484037392970      0.02306551243162
  H   4.47306456909129      1.71956635456781      0.08477425589232
  H   4.69632834152819     -2.28600998635148     -0.26698171060894
  H   2.50401910333965     -3.07075113161998     -0.24377900601354
