29
Coordinates from ORCA-job ./opt_b97-3c_parallel
  N   -5.42294454402337     -2.07371472601945      0.00010253901424
  C   -4.62294212444479     -1.23146455154424     -0.00001156707246
  C   -3.62650368100912     -0.22041488215588     -0.00035524358253
  C   -2.24884598370042     -0.70426824981070     -0.00049344344686
  C   -1.19488848160951      0.11753838458802     -0.00084226080031
  C   -1.02733971334860      1.57485151175060     -0.00115579946725
  C   -2.02013551458259      2.57072370061633     -0.00117983157750
  C   -3.36134657791801      2.32206948744201     -0.00089501677708
  C   -4.06878139399056      1.07499964449233     -0.00052258754338
  H   -5.14555540976194      1.18466485334181     -0.00035235063062
  H   -4.00690332365098      3.19063930420236     -0.00095369598038
  H   -1.70176810666683      3.60669544318788     -0.00144046397508
  C   0.37519361435166      1.46392735292097     -0.00137677600589
  C   0.28463148092033      0.01967102864152     -0.00107846472631
  C   1.18768335825020     -0.99208032745100     -0.00101795497550
  C   0.70369707712775     -2.32176394818857     -0.00066044786062
  N   0.35136940670909     -3.42937356617631     -0.00008035872747
  C   2.64253661377801     -0.80210167337237     -0.00131553228372
  N   3.36159444759886     -1.94087652034378     -0.00116419123640
  H   4.36674144133701     -1.91468002697126     -0.00138664960353
  H   2.91555289519239     -2.84052679634323     -0.00092919460725
  C   3.29896274417719      0.43509720892553     -0.00170878773391
  C   4.70950618618196      0.34219410441081     -0.00194694467405
  N   5.86564882636176      0.20766893819467     -0.00213561205544
  C   2.79446532750689      1.78562956193896     -0.00190004956214
  C   1.52695540041672      2.27236838220600     -0.00175842201125
  H   1.40305580121586      3.34743255399100     -0.00195959866697
  H   3.58434205982335      2.52452237423770     -0.00220665967865
  H   -2.10377743964226     -1.77472184821169     -0.00030496035171
