34
Coordinates from ORCA-job ./opt_b97-3c_parallel
  N   -0.30593621560052     -4.48984243613144      0.35195099281971
  C   -0.75070147553507     -3.42010314562477      0.24488627255696
  C   -1.28726363322702     -2.11539093508812      0.12709870092857
  C   -0.43570551086210     -1.02281506245750      0.04893746583687
  C   -0.79804087150961      0.46003370622071      0.03345814843673
  C   0.57176326343597      0.77599302353341      0.03651708849572
  C   0.92066499850803     -0.67434618945010      0.01436697096102
  C   2.16863469268037     -1.31526788849027     -0.13265975669201
  N   2.22088985778357     -2.65879694715211     -0.33464998623433
  H   1.42024511958415     -3.23919386797565     -0.15286004079837
  H   3.10637350509155     -3.11913138757050     -0.22625868864848
  C   3.38066982737635     -0.62486824686863     -0.15429586318534
  C   3.65348062985837      0.74062447855851      0.01595298485683
  N   4.99768734446922      1.05486428746260      0.06219480298383
  H   5.63849475882814      0.38020648266392     -0.31613612260126
  H   5.25203204980583      2.00524511814279     -0.14086504411348
  C   2.79499289114941      1.83448424449090      0.19042657209179
  C   1.39999538315199      1.90433757965981      0.19651003539074
  N   0.85451749593827      3.12834393876530      0.44344899084618
  H   -0.11109533650944      3.30526374193643      0.23108310416486
  H   1.45079515974115      3.93038817050143      0.34604667792331
  H   3.29849482447579      2.77834637075402      0.36730444022517
  H   4.25658357777507     -1.24749219562724     -0.29932937572882
  C   -2.03993246733885      1.07449550473585     -0.06073445170701
  C   -2.08154317809092      2.46781699941727     -0.28727704273165
  N   -2.15669242919487      3.60944951127211     -0.50330080522139
  C   -3.31304908805727      0.42459252130408     -0.02259813951403
  N   -4.44067327320463      1.22958145972985     -0.03354450811037
  H   -4.33481123410826      2.17129713339617     -0.37229479670721
  H   -5.28313794470910      0.79271529157430     -0.36412580002526
  C   -3.53947432170548     -0.95203336806659      0.08670258984022
  C   -2.69502123029027     -2.03983489565955      0.15191163078336
  H   -3.19517069506710     -2.99540895188526      0.23184042460894
  H   -4.59053945534276     -1.21537401237170      0.13494015796815
