30
Coordinates from ORCA-job ./opt_b97-3c_parallel
  N   -5.78734386759786     -0.44802999833312     -0.04293604385915
  C   -4.62359247045844     -0.41640891364359     -0.05662710825722
  C   -3.21313828242419     -0.31385870529440     -0.06172290605554
  C   -2.52448947590047     -1.56208446504982     -0.12705345911666
  C   -1.17867957738132     -1.83440681495968     -0.12123205964242
  C   -0.20514135784829     -0.84514948800841     -0.04085989631104
  C   -0.41991607645226      0.64932236226420      0.01143278530448
  N   -1.42273175008378      1.44950667868048      0.02762135365286
  C   -2.72107873727752      1.00898887311356     -0.00370656924819
  N   -3.59292940642871      2.05285639381042     -0.00566963256193
  H   -3.20785573163072      2.95318059374396      0.21224273812531
  H   -4.57472561017431      1.90537573437484      0.14607694729590
  C   1.01488282576012      0.84187331841739      0.03618510610922
  C   1.17088207900152     -0.61700593979015     -0.01042781428121
  C   2.36972699218536     -1.37757772866524      0.03291218939815
  N   2.22482769223294     -2.74148056056472      0.02203224671440
  H   3.02047748586050     -3.29499197508749      0.28978898668012
  H   1.35026280238145     -3.09990029546503      0.36285713523916
  C   3.62980008821932     -0.82051333047936      0.04885986674034
  C   4.04922432499171      0.54969271071057      0.00369774620694
  N   5.42289808777570      0.69385439615266      0.03481038442985
  H   5.78604978083436      1.59862562134151     -0.20952920309335
  H   5.97150490254084     -0.06555703973579     -0.32924224867688
  C   3.30185102594245      1.72144801910200      0.00038020272970
  C   1.90358296409979      1.86542005376503      0.03537795099727
  H   1.50898935452472      2.87435872625632      0.04522083257563
  H   3.87416086888716      2.64095187818589     -0.02507343836204
  H   4.44660667071881     -1.53117333851637      0.11955249075934
  H   -0.89165089512600     -2.87698959333412     -0.20049317107382
  H   -3.18446114547294     -2.41667088359270     -0.18872118881933
