31
Coordinates from ORCA-job ./opt_b97-3c_parallel
  N   -5.06082710403127     -3.39663725708137     -0.00165434767760
  C   -4.27204372331136     -2.54403203659784     -0.00117095179907
  C   -3.32261781734011     -1.48821974394773     -0.00064012047698
  C   -2.00042564265556     -1.85254480334501     -0.00081871094902
  C   -0.93304107205978     -0.94121175687274     -0.00038620587508
  C   -0.94836519090759      0.51620389337929      0.00027818933818
  C   -1.91580047392118      1.43843886821020      0.00072505296096
  C   -3.33228986437343      1.07736911460054      0.00061255903032
  C   -4.22603845648769      2.18378506555714      0.00120128334770
  N   -4.93001187821248      3.10679730833254      0.00170813344054
  C   -3.91271287658205     -0.15453155558750      0.00003493362516
  H   -4.99321441713652     -0.16157482728288      0.00007398640081
  H   -1.67388904002165      2.49039217842036      0.00119876531706
  C   0.53320887088720      0.46032168985282      0.00020216307879
  C   0.48186627725220     -0.98082313401783     -0.00042649418725
  N   1.38923125848690     -1.95108328024299     -0.00083202399275
  C   2.68053962459143     -1.69649892614874     -0.00077811866988
  N   3.46026097979421     -2.79718926154236     -0.00109018684143
  H   4.46287614745035     -2.76532905818896     -0.00128535525265
  H   2.99708739331758     -3.68763386867075     -0.00149577712824
  C   3.41266571143638     -0.41876918192154     -0.00043012608379
  C   4.81508332567258     -0.53875734020330     -0.00067422366637
  N   5.97802003709251     -0.61557392096030     -0.00084919528835
  C   2.95694337701076      0.90975363868683      0.00015818932918
  N   3.85304052777381      1.90794099331914      0.00042904857354
  H   4.84166654328240      1.72317479353752      0.00024736192714
  H   3.55684326382238      2.86839963271469      0.00084657783074
  C   1.56182886720732      1.34596782546485      0.00049657609588
  C   1.29577085532198      2.73228477141430      0.00109208434330
  N   1.12532178850234      3.88241080205249      0.00157361226828
  H   -1.76406125506167     -2.90847374943081     -0.00133014041916
