32
Coordinates from ORCA-job ./opt_b97-3c_parallel
  N   -4.46555608576518     -2.77576090260262      0.02238916296574
  C   -3.62724376680310     -1.96703080418351      0.03645498703976
  C   -2.54811548601872     -1.05735361623895      0.04225382733306
  C   -1.23527531213370     -1.64531489086887     -0.00785209871402
  N   -1.14371648026778     -2.99729360775607     -0.00926244728287
  H   -1.97363127559280     -3.54940862241833     -0.14685741730135
  H   -0.27481227083573     -3.42691278950273     -0.26254442282778
  C   -0.09177133201712     -0.87018464102211     -0.01262229818401
  C   0.12667895015938      0.59480910431426      0.00118752234283
  C   -0.73112899189295      1.66793083313499      0.01268589282975
  N   -0.25417063289114      2.94241899862913      0.02972065528551
  H   -0.89761901485746      3.69913385934819     -0.13379042131207
  H   0.68585396463755      3.10171234004566     -0.27896263569652
  C   -2.16584805270957      1.49155966794021      0.05586146190311
  C   -2.92974298465704      2.67871174612395      0.05528553575849
  N   -3.49469480488731      3.69739102192543      0.04449380316305
  C   -2.88292036596093      0.29881333946532      0.06915664693961
  H   -3.95345187762151      0.45881680285311      0.09073199388432
  C   1.53939635241769      0.38481179820833      0.00473494097619
  C   1.30852382750633     -1.09484688977934     -0.01166513145557
  C   2.22531764205767     -2.11401790248331      0.01540045509338
  C   3.61028277262289     -1.93120503961302      0.03600480014615
  C   4.36646974949635     -0.76757391198501      0.04882312892067
  C   4.00459357176294      0.58684687423250      0.06665245903156
  N   5.03203556535012      1.51466973344993      0.16709090278469
  H   5.94586219680917      1.19268204826887     -0.10200445822337
  H   4.83653716165481      2.43586154950906     -0.18539817047200
  C   2.69114797635406      1.11004443607006      0.06183488628640
  H   2.61902321710158      2.19111442067575      0.13027424571051
  H   5.43814861173797     -0.93839567363245      0.06521774022679
  H   4.19481645700687     -2.84285575006334      0.04269221716483
  H   1.88056774943660     -3.14182356764502      0.03233200688319
