31
Coordinates from ORCA-job ./opt_b97-3c_parallel
  N   -4.78063074428031     -3.21877312381894      0.01200324130875
  C   -4.00318667357223     -2.35532196584037      0.00706938291555
  C   -3.01095048145045     -1.34008532345954      0.00132337978772
  C   -1.62978475719221     -1.83286891472522     -0.01137893347719
  C   -0.57667386975631     -1.01761486487204     -0.01675795360132
  C   -0.41445318872126      0.44734666436794     -0.01227180130109
  C   -1.38733309226476      1.44852784189831     -0.00189012724423
  C   -2.74657973136376      1.21705311767401      0.00738211564937
  C   -3.59086060261355      2.35639788714979      0.01718519562862
  N   -4.29964079908141      3.27753688500878      0.02568375729595
  C   -3.45500336576539     -0.05200205055875      0.00885673541381
  H   -4.53059152945058      0.06066736170776      0.01796202128557
  H   -1.05919039691566      2.48022144452687     -0.00054132003199
  C   0.98702709018964      0.33298738318919     -0.02260156229068
  C   0.89857409013114     -1.12031781627410     -0.02544380999037
  C   1.80966223770945     -2.10324433426791     -0.03513900514774
  C   3.23380903885486     -1.87392117727501     -0.03438154870613
  N   3.98202588043320     -3.01767995923309     -0.08747160957336
  H   4.96888878473479     -2.96504057058898      0.09021223073257
  H   3.55288981243519     -3.88613566402540      0.17430314850154
  C   3.88937531989116     -0.66140288426129     -0.03074515330263
  C   3.44591024642552      0.69328940244525     -0.04002965422515
  N   4.44650725916969      1.61632453402512     -0.10009781345754
  H   5.38342736789202      1.34215591179694      0.12797067042608
  H   4.22836691782914      2.58771802300517      0.04309511316279
  C   2.12050006912494      1.16867802526709     -0.02326658205023
  C   1.91800610882776      2.56075583582825      0.00045934568797
  N   1.77652682724429      3.71638704704321      0.02613837889726
  H   4.97055310455195     -0.75039923961982     -0.04904128202874
  H   1.47196975190443     -3.13239176853037     -0.04935051878704
  H   -1.49456705242132     -2.90548975828282     -0.01674001747809
