28
Coordinates from ORCA-job ./opt_b97-3c_parallel
  N   -4.87198435743065     -0.04927838078092     -0.10113342495350
  C   -3.50215305222908      0.08809620285424     -0.04578066902141
  C   -3.03372765943054      1.41256362193843     -0.05222899735483
  C   -1.71834292607859      1.88434034881518     -0.05392691594717
  C   -0.60474766458837      1.09645625001802     -0.04330167590174
  C   -0.46171329506306     -0.37241277152927     -0.03950370006470
  C   -1.43932617392312     -1.39230271342586     -0.04192407696958
  N   -0.95862077573588     -2.66104859611766     -0.07971072315729
  H   0.03039001074718     -2.79477263471195      0.05582031070889
  H   -1.56245188269286     -3.43863396607061      0.11341092924495
  C   -2.80496605789825     -1.15141033093108     -0.03361543239877
  H   -3.43706541168362     -2.03234321940883     -0.06617938962249
  C   0.92131324456255     -0.31031427707002     -0.00432696815152
  N   1.91925022786370     -1.17614462936173      0.00789694167411
  C   3.17358880505075     -0.73004460459458      0.04296633802265
  N   4.13981329765571     -1.72061716386182      0.12160117504217
  H   3.80224746869607     -2.62846269494549     -0.15149344569265
  H   5.04148242827070     -1.49885567291778     -0.26421369618438
  C   3.64759635567756      0.61786769324217      0.06382712394771
  C   3.01088020101732      1.83666456911607      0.04194271435305
  N   1.68770037111571      2.18408428012218      0.00251972603318
  C   0.82021121078783      1.23050787386290     -0.01529799269671
  H   3.66941359302514      2.69795450464068      0.06099641512054
  H   4.72828563511373      0.70109891295133      0.11455323109333
  H   -1.57754472600371      2.95860418476635     -0.04988257759596
  H   -3.80795911613032      2.17051155418598     -0.06115752631658
  H   -5.26669655047423     -0.91868908227285      0.21065543331771
  H   -5.42467822422166      0.75646265898690      0.13196588217101
