30
Coordinates from ORCA-job ./opt_b97-3c_parallel
  N   -5.53774262680125     -0.02357918450224      0.00300871678316
  C   -4.37510563416839     -0.04532059129949      0.01320265173894
  C   -2.95827132378699      0.00188552957866      0.01879693582631
  C   -2.33549666575658     -1.26065006552793      0.01715533814699
  C   -0.98439585137476     -1.60611269749693      0.01122666271769
  C   -0.65353626601431     -2.98363614011519      0.01586794898469
  N   -0.31831429951000     -4.09681905741939      0.01840955006266
  C   0.04007323964630     -0.66249747213975     -0.00585687494147
  C   -0.13085139393493      0.85935600897887     -0.02384639195367
  N   -1.11230447076353      1.70089601834299     -0.00961299516400
  C   -2.41437775793218      1.31903020599776      0.02174018792769
  N   -3.26380525646232      2.37889034174347      0.08813726246334
  H   -2.87023894299841      3.28174465093757     -0.10189059437645
  H   -4.25026033093212      2.25779781808028     -0.05778837539798
  C   1.27330815710199      0.99896999462805     -0.04685152449181
  C   1.41938243389274     -0.47416120427780     -0.02141010178474
  C   2.63269337391473     -1.23181204982250     -0.01513232812217
  N   2.56838886511446     -2.57066241280974     -0.02506367650727
  H   1.70445487388456     -3.08693288529108     -0.02902405693319
  H   3.43854509701163     -3.07381708051628     -0.00715918173132
  N   3.86379824806133     -0.73158633704327      0.00267472949011
  C   4.22288981991258      0.56493307653250      0.01093408900134
  C   3.57931019584383      1.78088333606455     -0.00653478122151
  C   2.18189549542570      2.03610716405244     -0.03881313375674
  N   1.73797086038460      3.31744036434348     -0.09732011504416
  H   2.36107565718627      4.06544727327611      0.14618691703671
  H   0.75425957020253      3.48440183052597      0.03211480262927
  H   4.23096793685589      2.64617090088160     -0.00653231613326
  H   5.30565294564644      0.66073538218257      0.03515426455526
  H   -3.02486867204981     -2.09254318368534      0.01845124209559
