25
Coordinates from ORCA-job ./opt_b97-3c_parallel
  N   3.97192071009220      1.59706530631663      0.10866185347101
  C   2.95055908800932      0.68292022057403      0.03846129260634
  C   1.62202067317020      1.27199727884413      0.04086384014236
  C   0.51801129520378      0.51805281016146      0.01820303259312
  C   0.28536616304073     -0.94061832690019      0.00000528075792
  N   1.11265864892536     -2.00532042911817      0.00156609248495
  C   2.40648954814269     -1.82541070285231      0.01473165439160
  C   3.24084686179563     -0.66186935581449      0.02132961133519
  H   4.29897450041292     -0.90344410864130      0.01812202118630
  H   2.97658169033532     -2.75187688378887      0.01122381133577
  C   -1.09906273831128     -0.75194083653193     -0.00660855461925
  C   -0.94608801621361      0.70753271953983      0.01110363269960
  C   -1.81908791381812      1.72717034106552      0.01743750332625
  C   -3.25137374667185      1.54527345914209      0.00623627816313
  C   -3.96355029854293      0.39134805053355     -0.00931344672315
  C   -3.54373032906015     -0.99261981579630     -0.01934697404204
  C   -2.29058025771328     -1.51617648404346     -0.01779904429016
  H   -2.18685297477928     -2.59495096252527     -0.02590167728276
  H   -4.36031189518689     -1.70435840861815     -0.02874609243514
  H   -5.04044130164689      0.51700251579030     -0.01470633942396
  H   -3.83166841574463      2.46058291927513      0.01197031340009
  H   -1.44717129502189      2.74459802644299      0.03245187502914
  H   1.54634000054015      2.35287072176357      0.07330246082007
  H   3.78680925255940      2.53109590761542     -0.21129791843128
  H   4.90281790088312      1.27311311506581     -0.08817006789508
