31
Coordinates from ORCA-job ./opt_b97-3c_parallel
  N   -5.48807361289365     -0.71186200391807     -0.03083912519999
  C   -4.33089374448439     -0.57827871768748     -0.00923239848312
  C   -2.93287427946176     -0.39594980539234      0.00876387495685
  C   -2.17144184518098     -1.63146261441467      0.02156854010380
  N   -0.86147655577454     -1.83656864774582     -0.00426976077861
  C   0.00876974557527     -0.84606142664349     -0.01939501944185
  C   -0.09023878797594      0.66490825892324     -0.00358512192075
  C   -1.18667205787822      1.47192254242894      0.01699827733635
  C   -1.00000046580371      2.87413209012679      0.03286899060642
  N   -0.87845755796424      4.02974248240004      0.04476842150503
  C   -2.53997490517747      0.96408261852411      0.00969475624982
  N   -3.50575360128624      1.90782384667304      0.00533161905717
  H   -4.47918575965261      1.66120231738714      0.00591984519558
  H   -3.26956828227249      2.88351325068374     -0.00262424735270
  C   1.33184290869903      0.73908166536302     -0.01155562355652
  C   1.38966064709161     -0.73902704092250     -0.03723422199313
  C   2.53130292873202     -1.57290096263019      0.00306385654223
  N   2.31766025330778     -2.90186693234654      0.02018674155474
  H   3.10264738688726     -3.52122265141857      0.11244797552610
  H   1.38053097668267     -3.26154826981718      0.07373565625936
  N   3.78694398496071     -1.16613906160364      0.02105086471918
  C   4.20802340528553      0.13694175187101     -0.01187192616184
  N   5.55748141125823      0.18595823343824     -0.04901096660286
  H   6.08577085639475     -0.66582368784634     -0.04939892663673
  H   6.00909971291100      1.08135011383556     -0.06562468332160
  N   3.66080669901813      1.35861787640612     -0.00430507588181
  C   2.34715449948681      1.64415459995803      0.00643303606705
  H   2.11653857685763      2.70378071936434      0.03027363347927
  N   -2.89890738132564     -2.78376746237690      0.10163490770498
  H   -2.38699181061839     -3.62683097040042     -0.08473440478640
  H   -3.88005618419803     -2.79065126181947     -0.11204796674626
