30
Coordinates from ORCA-job ./opt_b97-3c_parallel
  N   4.11833552215408      2.14868651924650     -0.16512758354373
  C   3.12714137156284      1.19669351738173     -0.05417960733088
  N   3.59047091899672     -0.04143682273368      0.00369514614414
  C   2.96504769703588     -1.22489824912759      0.04603861824152
  N   3.83220409181671     -2.28675520707763      0.14926224528135
  H   3.45343729550799     -3.18251039077705     -0.10089262314503
  H   4.77761292371979     -2.10423939231574     -0.13516127794199
  N   1.67153631528297     -1.58851760169587      0.04250661061824
  C   0.73027171266156     -0.67316284426233      0.02236530913560
  C   0.72384858380019      0.85631572392528     -0.00978578956574
  C   1.79029089867411      1.69102508721626     -0.06398631878865
  H   1.65495244780622      2.76451033730752     -0.14938054689007
  C   -0.69214375439170      0.81250046002837     -0.01479202323760
  C   -0.66079670607529     -0.66744177750346      0.00829110862137
  C   -1.71429851747054     -1.58499870210783     -0.00935338533328
  N   -1.41170577718827     -2.90411310557502     -0.05180609320852
  H   -2.15180253578404     -3.55896128107563      0.12671628750768
  H   -0.45913080316475     -3.18668701184281      0.10445237604358
  N   -3.01118608051773     -1.28306426561885     -0.01180348217481
  C   -3.53047922455569     -0.03233313061112     -0.01347014214080
  N   -4.89104087097695     -0.07931709579785      0.02575963459115
  H   -5.39089462831648      0.77050481426469     -0.15866879812033
  H   -5.33081012103759     -0.96212008625874     -0.15612539879665
  N   -3.07922812573328      1.22641158925128     -0.02131696508433
  C   -1.79711800607365      1.63691556428484     -0.01994108115759
  N   -1.65778493606620      3.00418114424412     -0.06531376836841
  H   -2.48666161241206      3.50403638281891      0.21090253066524
  H   -0.79991742688839      3.38222088665700      0.29678967036775
  H   5.03815472581172      1.81756657811996      0.07080621928643
  H   3.91013667752181      3.08264366613474      0.14041784682438
