32
Coordinates from ORCA-job ./opt_b97-3c_parallel
  N   -5.81966256366598     -0.14230870391629     -0.00461818610730
  C   -4.65813703109696     -0.08760093054915     -0.01751080678647
  C   -3.23983724286392     -0.08795653632441     -0.02329091785385
  C   -2.64489648351449     -1.39352186445908     -0.02169539268356
  N   -1.34333169082221     -1.72411891989060      0.01804390174361
  C   -0.37985254485013     -0.84826603346223      0.03616277736950
  C   -0.26934593849777      0.68663278359075      0.01122942636091
  C   -1.32095972932344      1.58860354588877     -0.01582870499365
  C   -1.04179111280428      2.97731794878320     -0.03127200026656
  N   -0.74995503071889      4.10279203553880     -0.04293844291614
  C   -2.66551309046696      1.18883263275049     -0.02305542723458
  H   -3.38283736097055      1.99713370741780     -0.02767104894975
  C   1.11820577633315      0.54829506032854      0.02887832840489
  C   1.01376843556803     -0.92771370478601      0.06651717294288
  C   1.97657582983826     -1.93241825787648      0.04066942148357
  N   1.54723777063746     -3.22588576473311      0.10680457465256
  H   0.56557466191500     -3.38577863297510     -0.05003053223107
  H   2.16474256701231     -3.95273028972742     -0.20736456392151
  C   3.34213842388938     -1.64903918265775     -0.01149698722469
  C   3.97495020650446     -0.39291866826559     -0.02678555660672
  N   5.33958947860772     -0.42775357595198     -0.11074128555306
  H   5.81032696780045      0.44120991030133      0.06777605688334
  H   5.83539421605195     -1.27178731761983      0.10861010382549
  N   3.54172626477588      0.88210582311352      0.00330307857739
  C   2.29561543292617      1.34145065718286      0.02196584579206
  N   2.19418244715330      2.68140751737050      0.04223214986519
  H   1.31329424178709      3.16705347361634      0.02946351972543
  H   3.04368738575733      3.21456215989244     -0.00608818084162
  H   4.00732660692229     -2.50390157268613     -0.03918657349571
  N   -3.47270588460797     -2.47728720177766     -0.10208227040931
  H   -3.05452051142133     -3.36034817644716      0.12753728411494
  H   -4.45342859245537     -2.37603586756937      0.09159488103376
