28
Coordinates from ORCA-job ./opt_b97-3c_parallel
  N   1.18780847647586      4.18570287289666      0.00383170336433
  C   1.42538258970858      3.04868174475371      0.00313078459329
  C   1.70271099314777      1.65545578624168      0.00230654131089
  C   0.64216460206423      0.76742705268934      0.00144726275437
  C   0.66213047226399     -0.75054147895211      0.00044329011087
  C   -0.74778694604173     -0.74675878580272      0.00004133524407
  C   -0.76712484847519      0.72661697597795      0.00103169134300
  C   -1.88129811676677      1.59284602232280      0.00163727183622
  N   -1.73985644988967      2.92313801204052      0.00384028964960
  H   -2.58380405410022      3.46920700638402      0.00365014339920
  H   -0.85041990569740      3.39345027854546      0.00479975670520
  N   -3.16855136359424      1.19557019763655     -0.00001000383216
  C   -3.62725266196738     -0.04766499514695     -0.00164371112643
  N   -3.13607018420400     -1.27841080877184     -0.00123022988369
  C   -1.83885146835422     -1.64190620710777      0.00005984778723
  N   -1.66281987959141     -2.96806472737422      0.00140231680595
  H   -2.49233971055627     -3.53581171112313      0.00034246874530
  H   -0.76151991724903     -3.41524762754796      0.00135858165694
  H   -4.71474908550846     -0.06194080055174     -0.00355699909528
  C   1.74561024602192     -1.61043169738799     -0.00009351823438
  C   1.50484202104935     -3.01041674318460     -0.00150261814069
  N   1.29686006275231     -4.15322336352975     -0.00254127518196
  C   3.10236276090945     -1.22477044196318      0.00055258782548
  C   3.65211289056344      0.04782159962189      0.00169386361038
  C   3.06909342853302      1.30554141763341      0.00246349239777
  H   3.75534452630133      2.14081506730932      0.00327963236065
  H   4.73519682586829      0.06207353993656      0.00200883331991
  H   3.81031190733643     -2.04173424764589      0.00008070637392
