32
Coordinates from ORCA-job ./opt_b97-3c_parallel
  N   -5.71312438140107     -1.71784973484195      0.08946282881269
  C   -4.82148017863521     -0.96834195993032      0.03442871253003
  C   -3.69525864482745     -0.12469617629821     -0.02228304226695
  C   -2.45462995401124     -0.77457386952400      0.02705123690255
  N   -2.38922004333203     -2.13081124707975      0.06959087736950
  H   -1.54584071190180     -2.54962157691001      0.41502753093001
  H   -3.23596708686111     -2.64913905693771      0.24148588262343
  C   -1.22158744669567     -0.07317034882077     -0.00141841469933
  C   -0.96367968348328      1.36779875750254      0.00195557809039
  C   -1.74413503773397      2.45869268738824     -0.04961891198337
  C   -3.17647895893470      2.39272093878332     -0.11474918979248
  C   -3.97160364624201      1.29401089267289     -0.10993102840105
  H   -5.03351269178590      1.49938449037502     -0.16285172116315
  H   -3.69085050203681      3.34291952492731     -0.17668218829736
  H   -1.28353730445888      3.43902229982462     -0.05332935463345
  C   0.47238337462324      1.05186518121032      0.02376729200560
  C   0.15134243854608     -0.38188005021629      0.00052197704337
  C   1.01956262696807     -1.46813144084586     -0.04803883858165
  C   2.39973850669929     -1.41108833552619     -0.02842975888354
  N   3.07897185603248     -2.61318495830940     -0.01693052005467
  H   2.55934025876427     -3.41655698012770     -0.32252918716179
  H   4.03707339537300     -2.62099503205074     -0.32389275690468
  C   3.25160502614696     -0.23135113836177      0.03966181371266
  C   4.63708690739994     -0.49187662438589      0.03318080874141
  N   5.78916700402305     -0.66662853137465      0.01488706521334
  C   2.93499398106057      1.13601072497795      0.08409237471755
  N   3.94337861189683      2.03992169049254      0.17687744530413
  H   3.74845136686202      3.01310191439209      0.04022598977775
  H   4.90365850972175      1.75429298257815      0.09300412851371
  C   1.62530869742945      1.73050090983900      0.06622274108150
  H   1.58699940207558      2.81321078668755      0.09774617054833
  H   0.59591051471858     -2.46342872741032     -0.12365916989448
