31
Coordinates from ORCA-job ./opt_b97-3c_parallel
  N   -0.82179245374275     -4.05415379757474      0.26996094071414
  C   -1.12438122159916     -2.93336985224233      0.19196111734447
  C   -1.45969966847575     -1.56003773699757      0.10488694427502
  C   -0.43685239191436     -0.61083853270426      0.03739195558407
  C   -0.59151155129601      0.89453564684719      0.02651702091307
  C   0.82950655415015      1.01841650068489      0.01103381683915
  C   0.95679821282829     -0.45972162660741     -0.00225588569133
  C   2.12214476810742     -1.25891837846901     -0.08815995553922
  N   2.01080169660110     -2.60307143914716     -0.17023032945758
  H   2.83739264229376     -3.16980785227575     -0.12684011473543
  H   1.13569045058026     -3.07815295270760     -0.02963807217723
  C   3.40810454168307     -0.70244026944201     -0.13393528220310
  C   3.81043055449782      0.63377551331498     -0.09985206048657
  C   3.14129174168556      1.83587275753289     -0.02052120096570
  C   1.74348917395267      2.05006857413737      0.04259277303105
  N   1.30094029613888      3.35855044330172      0.08935681841533
  H   1.98416229958456      4.03040258412569      0.39635333206790
  H   0.40921234541728      3.49829602703670      0.53187635503480
  H   3.76047404676322      2.72493584386820     -0.00427020185394
  H   4.88916317387732      0.74627063082155     -0.13704861692999
  H   4.21717908817794     -1.42025668668224     -0.20438717092701
  C   -1.68011154725440      1.69680464656107     -0.02822342503894
  C   -3.03719010817921      1.26888316176569     -0.04251236063891
  N   -3.98471998451203      2.29128618306512     -0.06339291525625
  H   -4.90775311659311      2.01105326196896     -0.35068768047532
  H   -3.69631964006164      3.13315733146875     -0.53400817011374
  C   -3.49513137447823     -0.04186479252516      0.03361794073959
  C   -2.82953736332955     -1.26312178325645      0.11211656354126
  H   -3.47912842027570     -2.12592606514036      0.16921569586301
  H   -4.57628784180148     -0.13790129579108      0.03426548380235
  H   -1.52645401012615      2.76955201676255     -0.08837229587487
