26
Coordinates from ORCA-job ./opt_b97-3c_parallel
  N   -4.07130209415300     -1.39953755363113      0.20132025965307
  C   -3.04625383034858     -0.52396785630559      0.04968875642952
  N   -1.82265435121665     -1.23274926117332      0.03683045532154
  C   -0.73470445369637     -0.56895145502996      0.00812172176519
  C   -0.33396380634582      0.85407115836864     -0.02378861000755
  C   -1.19267947623680      1.96229665783854     -0.11421021837180
  C   -2.55432381825083      1.83117951357442     -0.13208488075932
  N   -3.35908625326802      0.73657136817604     -0.04384252425840
  H   -3.12437020974092      2.74930424250421     -0.22899686472815
  H   -0.79516696230452      2.96643466732512     -0.21005028621680
  C   1.00980593305786      0.46284924862561     -0.01323050689082
  C   0.69855008963424     -0.95815778087024      0.00515322459322
  C   1.42773876040425     -2.08798071347087     -0.01520659091239
  C   2.85824509982724     -2.09920099669749     -0.05350990306153
  C   3.70175121911816     -1.02827297555169     -0.05465939816789
  C   3.47328015755203      0.38126990646768     -0.00567905626598
  C   2.29676170955219      1.09029024018110      0.01036506707032
  N   2.29108595806233      2.46399523440835      0.00170251011402
  H   1.47438036240999      2.90921149971773      0.38313192838509
  H   3.15078656265484      2.92668763175815      0.24396434619025
  H   4.37797069703111      0.97985253186380      0.01648249181955
  H   4.75561554649737     -1.28196942954036     -0.08133260178577
  H   3.32505692575509     -3.07554235902437     -0.08492223078471
  H   0.90647865837547     -3.03689353315855     -0.00867564676393
  H   -3.88461518493063     -2.37836618934424      0.09137483753045
  H   -5.00710437634003     -1.05562743331156      0.08957678460286
