31
Coordinates from ORCA-job ./opt_b97-3c_parallel
  N   4.65900791303794      3.00285856611884      0.00038323412508
  C   3.74447679352483      2.28158875709630      0.00004082553166
  C   2.67598904166759      1.36118947262681     -0.00016665215149
  C   1.38537614032853      1.90793671832629     -0.00034883631979
  C   0.22800507787017      1.19737888113681     -0.00062554355855
  C   -0.08659016199363     -0.25091246493072     -0.00084368893934
  C   0.79283052381557     -1.34568939406520     -0.00069693420932
  N   0.29691103388134     -2.59134153989449     -0.00086246704736
  H   0.90445193846814     -3.39304673220989     -0.00083377372854
  H   -0.69210071920584     -2.76900109041817     -0.00119775475240
  C   2.21804886375828     -1.20279740454481     -0.00032364027133
  C   2.92152828597840     -2.42005597160849     -0.00016463860583
  N   3.49496686429972     -3.43593210153782     -0.00001003426560
  C   3.04645245627428     -0.02802864638827     -0.00017159225717
  N   4.36991310376223     -0.26142570177988      0.00002039762376
  H   5.02450117523033      0.50253835655781      0.00022589198906
  H   4.73908113396942     -1.19641564922540      0.00008488654845
  C   -1.46554224540665      0.00945239911258     -0.00115287681689
  C   -1.15695910533104      1.49942380232095     -0.00087580461310
  N   -1.86495755011228      2.58587996463471     -0.00059388723303
  C   -3.21491747226864      2.51386788068182     -0.00059537714850
  N   -4.08198744608901      1.52544161272750     -0.00139425148964
  C   -3.92712815822047      0.19346899631685     -0.00228666849028
  N   -5.10381965823986     -0.47256397102828     -0.00394776951904
  H   -5.94456562815318      0.07478756051828     -0.00282932794254
  H   -5.16642093635690     -1.47395236245638     -0.00327374211503
  C   -2.71867908081514     -0.58150308982604     -0.00178949212456
  C   -2.84329610502133     -1.98465290596315     -0.00213441098986
  N   -2.96292365098769     -3.14300922206741     -0.00241061839860
  H   -3.68576467041467      3.49094558774738      0.00016805857416
  H   1.30932096004948      2.98720341682153     -0.00027768410437
