29
Coordinates from ORCA-job ./opt_b97-3c_parallel
  N   4.34144911862625      2.48291573638849     -0.00359158122789
  C   3.47950748965601      1.69940734692494     -0.00290377354308
  C   2.48924593546552      0.69482723739212     -0.00193884700622
  C   1.15922568183501      1.13607609547888     -0.00117708082372
  C   0.06021304171747      0.32367138499462     -0.00008513423013
  C   -0.06087113963155     -1.13573027642833      0.00060704456245
  C   0.91154287043631     -2.14624441372197      0.00023515149165
  N   0.45584146143237     -3.41608027638588      0.00060870684423
  H   -0.53763521531996     -3.58155288389866      0.00275663847192
  H   1.07608597650755     -4.20344750139320      0.00255511226998
  C   2.28318739040223     -1.88484819326065     -0.00080357545150
  C   2.98428598387089     -0.66684612515346     -0.00180871605461
  N   4.33338767145114     -0.78280719483978     -0.00291031938184
  H   4.92816903901920      0.02731093204143     -0.00323762273939
  H   4.77206095116461     -1.68321804727474     -0.00238233186091
  H   2.91723713321570     -2.76470191547833     -0.00111242833793
  C   -1.45472057206264     -1.06692250620580      0.00200061512668
  N   -2.43069076996397     -1.95022529976905      0.00351215937601
  C   -3.70375746649400     -1.55825433328946      0.00472920988246
  C   -4.28017724291045     -0.26834645340907      0.00467763539336
  C   -3.74005214341415      0.99895899171293      0.00346199442623
  C   -2.36343120227833      1.37484457276890      0.00183965493118
  C   -2.02889537795880      2.75482017960022      0.00078041018254
  N   -1.73409968508063      3.87761656902724     -0.00051053312670
  C   -1.36049569057813      0.44912354153243      0.00124098504398
  H   -4.44387898239282      1.82032868855497      0.00378552819011
  H   -5.36383940177534     -0.29147528776061      0.00584015080023
  H   -4.41392591912650     -2.37761223456585      0.00594498048737
  H   1.00569283388708      2.20732966241767     -0.00141572549648
