32
Coordinates from ORCA-job ./opt_b97-3c_parallel
  N   -0.77209070567984     -4.16807054795212     -0.03810285044811
  C   -1.03870906873696     -3.03415601117815     -0.00631291459297
  C   -1.37541310764388     -1.66888679073886      0.02535565421824
  C   -0.31727304460345     -0.72990562082114      0.02543851276119
  C   -0.34428005312712      0.72537385575535     -0.01091967455788
  C   -1.34784504500933      1.63609664509812     -0.03629351838087
  C   -1.01725254126654      3.01018796910249     -0.06431343069622
  N   -0.79123700214307      4.15088422773120     -0.07482164933917
  C   -2.76492076105682      1.26458310703282     -0.00871979839120
  N   -3.62710527736179      2.32411403090638     -0.08042152217489
  H   -3.28762061559605      3.24535493670079      0.13584488361053
  H   -4.59531576751974      2.16638731476312      0.13145620588852
  C   -3.28786706401712     -0.00417829708389      0.05021644753233
  C   -2.72870337796937     -1.31736741514225      0.04973037832812
  N   -3.66302731394605     -2.32469787968322      0.14102435814656
  H   -4.57533066845223     -2.13512937762586     -0.23442917322347
  H   -3.34234760787153     -3.26273774733092     -0.03576335263363
  H   -4.37164841351455     -0.01502758349977      0.10522952180108
  C   1.12572211380723      0.75368204374420     -0.01939907845390
  C   1.08371294514926     -0.71106450062479      0.00855349033368
  C   2.16611482776815     -1.61902292823337     -0.01117901512480
  C   3.47290925692570     -1.26685045245712     -0.03837864075200
  C   4.10681114376753      0.05464310589759     -0.03744625957919
  N   5.48955949356200     -0.03680324581649     -0.11421711891701
  H   5.90711982866057     -0.84437380719249      0.31713757692862
  H   5.99843942520227      0.80868914915351      0.08260777608106
  C   3.52293998235245      1.29128905884702     -0.03382274673928
  C   2.13289174005117      1.64095924742763     -0.04560941502416
  H   1.89938975082932      2.69738979504754     -0.06069334191445
  H   4.20560305890575      2.13362913166965     -0.02806968850089
  H   4.17866496414448     -2.08814434452521     -0.08258061487375
  H   1.93551066259420     -2.67744480746105     -0.01340006591149
