29
Coordinates from ORCA-job ./opt_b97-3c_parallel
  N   5.18790184522747      2.16966212642852     -0.23629612237766
  C   4.28330721561491      1.44126366424787     -0.16987416339347
  C   3.16352086175371      0.57910594804097     -0.08513883191502
  C   1.86297492041981      1.21573151391991     -0.02995917357494
  C   0.72951447039985      0.50534443294877     -0.00679991085237
  C   0.44703130485599     -0.93494814119450     -0.02023707209214
  C   1.38760813218287     -1.99661439260132      0.07478501746828
  N   0.89944574391487     -3.25474661329616      0.20510664267595
  H   1.57259664966538     -3.97063216634494      0.42296355124829
  H   -0.04247287445250     -3.38981940371522      0.52440955489820
  N   2.70499673542526     -1.90439930672666      0.03467172284680
  C   3.44196625190511     -0.77732904782200     -0.08280334590090
  H   4.49980551271447     -1.00635546280739     -0.16201865765865
  C   -0.94275482574045     -0.74572180579742     -0.01925110159418
  C   -0.72027043857206      0.73222146776743      0.00057066575598
  N   -1.44622767789981      1.78325123380786      0.02430488069874
  C   -2.82619486140806      1.69386225833008      0.04558034023397
  N   -3.38303989527690      2.94509494422717      0.07184187554408
  H   -4.33375099942246      3.05256259113186      0.37499235777308
  H   -2.75342602940954      3.68660441116567      0.32321156300957
  C   -3.65027884470713      0.58724509789978      0.00590153858405
  C   -3.38448082361587     -0.80677812565186     -0.07152626220094
  N   -4.51253171242994     -1.61351642619843     -0.07842622428171
  H   -5.34780021219587     -1.20290269837647     -0.45948721150796
  H   -4.37377692099380     -2.55515465516566     -0.40261592810747
  C   -2.14400066571062     -1.43452597369457     -0.07969251079219
  H   -2.13767354885718     -2.51665961416450     -0.15877312539058
  H   -4.70784316714742      0.82861930905128      0.03617575606416
  H   1.82426506855990      2.29611275239017     -0.02810791666072
