22
Coordinates from ORCA-job ./opt_b97-3c_parallel
  N   -3.81518524794982     -1.65029932428047      0.03313218462796
  C   -2.79165739928474     -0.75396859055644     -0.03320921289906
  N   -1.58366263947731     -1.27748777723016     -0.10436731770812
  C   -0.51545201121280     -0.48509967215288     -0.12391197716432
  C   -0.32764595848401      1.01400758123000     -0.03265012399169
  N   -1.10714075168490      2.02851309161463      0.04534308914176
  C   -2.46809321133521      1.79044364521086      0.04898765304372
  C   -3.19156390758939      0.64109970463102      0.01900968100916
  H   -4.26415672215469      0.79561254855969      0.05717096351564
  H   -3.04673319475426      2.70575189007811      0.09535237772635
  C   1.11720795376283      0.80100108767979     -0.03715263914564
  C   0.86756419035102     -0.65415637925421     -0.14075243080171
  C   1.81137177025283     -1.65096875899271      0.22743831564113
  N   3.09023947481532     -1.48019298944302      0.31498607221560
  C   3.75700416802800     -0.35009650885952     -0.16640356294253
  N   3.50873245040377      0.91036045847915     -0.15883217787107
  C   2.27126684590074      1.47645870548954      0.10205459698495
  H   2.27871648703032      2.54112777475897      0.29422849712276
  H   4.72773423951186     -0.62495243443793     -0.57361697426686
  H   1.42768496159364     -2.61253940624315      0.56513649081471
  H   -3.58206528943350     -2.60991790593856     -0.15327351462608
  H   -4.75523103588972     -1.36357127464259     -0.16561844742662
