31
Coordinates from ORCA-job ./opt_b97-3c_parallel
  N   4.91003318492880      1.62245253611240     -0.00070860317017
  C   3.89467561174420      1.04513944043873     -0.01582642967712
  C   2.66805879016814      0.36579185328433     -0.03036938104586
  C   1.50512265475304      1.19729492521971     -0.03141208485141
  N   1.67543516860262      2.54992415248594     -0.09389534623511
  H   2.58383520981904      2.93082573042939      0.11206935193208
  H   0.90094130153573      3.12218383681584      0.18667643056724
  C   0.22790452877358      0.67144800710137     -0.01263265901708
  C   -0.20943956426767     -0.73153393720965      0.02025567308777
  C   -1.55555872940206     -0.33766001876191      0.03622436923043
  N   -2.69678170968654     -0.97604856896037      0.05422230900185
  C   -3.87522473724734     -0.32972764787389      0.06047801754421
  N   -4.96437228352150     -1.17599412546291      0.15375816260097
  H   -4.76124405472645     -2.13014544458114     -0.09089393544139
  H   -5.83967798850985     -0.83905192249411     -0.20690550885634
  C   -4.14403288107587      1.05855925858039      0.03017670685351
  C   -3.30852498820114      2.15863832052859     -0.01799017279399
  C   -1.90478638759076      2.23367450427753     -0.03725332861167
  C   -1.11576941630448      1.12175669585002     -0.00165947257005
  H   -1.46560050921507      3.22360810478209     -0.09565768209921
  H   -3.82285592438255      3.11195212043280     -0.04710747773994
  H   -5.20123502621055      1.29964962696759      0.05263712284933
  C   0.50441922744820     -1.92342646151472     -0.01761805866816
  N   -0.18925949128601     -3.08579403443697     -0.07318148580050
  H   -1.18242358287749     -3.06078572387191      0.08584680997789
  H   0.31245415712677     -3.93779481183534      0.10104889780934
  N   1.83493502314038     -2.05190236396808     -0.02645717844273
  C   2.74574596989490     -1.07772203827906     -0.01603106640186
  N   4.00249767545118     -1.58352114765044      0.02667679846082
  H   4.09122278711924     -2.57971192539479     -0.04639292783744
  H   4.81936494749948     -1.00670335871158     -0.05863604395540
