26
Coordinates from ORCA-job ./opt_b97-3c_parallel
  N   -6.14017176098482     -0.52272709663746      0.00161421732734
  C   -4.98070240600677     -0.46945209358482      0.00140496156742
  C   -3.55820058259325     -0.38583729996170      0.00123317808620
  C   -3.07184073052032      0.96575284830983     -0.00027737669221
  N   -1.84118932710566      1.43988059676392     -0.00084144577273
  C   -0.79034072810653      0.63601372425941     -0.00000148936282
  C   -0.58500294516104     -0.86281896396236      0.00160883907428
  C   -1.49989589520898     -1.85761379167554      0.00274496555203
  C   -2.89190204896102     -1.60536854615078      0.00253799255806
  H   -3.52940990072472     -2.47920993788497      0.00352708808372
  H   -1.18084824214583     -2.89269044899676      0.00385412858846
  C   0.83440054259827     -0.62055978655012      0.00127240970000
  C   0.58858768292272      0.82694519346149     -0.00027320159222
  C   1.48866184787509      1.91008843027655     -0.00155944074416
  N   0.97405463317555      3.14297192075945     -0.00291320309963
  H   1.59838299110062      3.93123838713042     -0.00386757977132
  H   -0.02416452857831      3.28075918191503     -0.00302419888686
  N   2.82953154336164      1.83543249541134     -0.00156382784883
  C   3.54867514620596      0.72085383414888     -0.00039409930142
  C   3.26792998847692     -0.66393980066098      0.00110400834636
  C   4.40946143800252     -1.50531178946852      0.00189420815482
  N   5.33868789608593     -2.20316109979177      0.00241300009690
  C   2.00380460140893     -1.30897741605745      0.00190596655743
  H   1.99354639071887     -2.39106505750708      0.00306334836917
  H   4.61394382117793      0.93199794253175     -0.00068253748386
  H   -3.84696621311375      1.72242562512218     -0.00108068650613
