29
Coordinates from ORCA-job ./opt_b97-3c_parallel
  N   5.84192547077911     -0.00041556746037      0.01893156666363
  C   4.68074386303461     -0.00031681571059      0.02036212107896
  C   3.25417051905387     -0.00021616510696      0.02066070676134
  C   2.67401889179203      1.27959601428504      0.02732701408699
  C   1.32194239546273      1.63217482408717      0.02705687286751
  C   0.27016958620736      0.75780177703259      0.00041815030971
  C   0.27006733372382     -0.75778531008918     -0.00052839686258
  C   1.32171150401670     -1.63233830377633      0.02501932518022
  C   2.67384242894616     -1.27995018156756      0.02572692190305
  H   3.37655842293531     -2.10139146854320      0.03822540608179
  H   1.11864531394171     -2.69775818912260      0.06120701553921
  C   -1.14403870828765     -0.73762249008843      0.01275180513311
  C   -1.14393454764822      0.73781338719939      0.01366737065553
  C   -2.18616137548219      1.66315649654741      0.01849132476194
  N   -1.88889164475120      2.99943896101804      0.02433265687051
  H   -2.62530131639881      3.63776083103375     -0.22078796757665
  H   -0.98307993712196      3.27185651487073     -0.31186454540099
  C   -3.53817402104185      1.27889381939560      0.07113825512432
  C   -4.07769820330453      0.00024712243483      0.09633209728706
  C   -3.53835753205763     -1.27844272543631      0.06960127409646
  C   -2.18639138543129     -1.66282407141954      0.01648002496724
  N   -1.88931324252432     -2.99915507565046      0.02071362568441
  H   -2.62580218156306     -3.63707752703688     -0.22520014883923
  H   -0.98353274949717     -3.27130743558848     -0.31577562519367
  H   -4.25845782903876     -2.08809494207574      0.08638740931573
  H   -5.16209426979551      0.00030610850127      0.13011392523579
  H   -4.25816020416282      2.08862735944228      0.08888249581236
  H   1.11902975081584      2.69757759990797      0.06456526060541
  H   3.37685311479772      2.10091919601652      0.04086113565085
