30
Coordinates from ORCA-job ./opt_b97-3c_parallel
  N   -5.21319984352067     -1.34103188279706     -0.15471489287772
  C   -4.21565931519784     -0.73960991268392     -0.10241627307733
  C   -2.97034526476233     -0.08448323303026     -0.04486863050148
  C   -1.82958144520316     -0.92321831783317     -0.02212660959835
  N   -1.99278362716706     -2.26688059359748     -0.00461921455825
  H   -1.20994004047470     -2.85276676169988     -0.22501618772447
  H   -2.90659456187513     -2.65615923058222     -0.16729645664699
  C   -0.52462504801638     -0.41002150966646      0.01680133934228
  C   -0.00938448404263      0.97675211660415     -0.00279829978447
  C   -0.62980333809413      2.19450966197441      0.02202209305869
  N   0.09269972651592      3.36734315421557      0.01297434284221
  H   -0.39109626079334      4.18387945944616      0.34597306083904
  H   1.03615919229157      3.31165654684140      0.35421945930347
  C   -2.05749147582649      2.31835445320042      0.00392759278259
  C   -3.00600238955158      1.34116354976204     -0.02481107934680
  H   -4.02040308105640      1.72159352224584     -0.03849043069967
  H   -2.43645068846906      3.33334953883330      0.00154216861374
  C   1.33167217959998      0.45816853562007      0.01808434941997
  C   0.77559221126208     -0.93515507286676      0.05664899767223
  C   1.47850142383865     -2.12056162142875      0.17066469094364
  C   2.86265219421957     -2.21126638498995      0.20207854490591
  N   3.83205670395405     -1.29268238732493      0.08346759473084
  C   3.75377160912629      0.01725729168049     -0.02797205222076
  N   4.97556686582873      0.65748053644186     -0.09848902235981
  H   5.01820764443515      1.53683135033681     -0.58364436097676
  H   5.74498180512964      0.03672110188079     -0.28750496734129
  C   2.60985074210117      0.88768142112696     -0.02698045114657
  H   2.81646436348750      1.95188512523180     -0.08047162941639
  H   3.25893218902187     -3.21514790335809      0.32037316093122
  H   0.94676658583873     -3.06133265708305      0.26621619869132
