31
Coordinates from ORCA-job ./opt_b97-3c_parallel
  N   -1.46530791344133     -4.07130241050208     -0.01524429726347
  C   -1.41118498696858     -2.90838358720219     -0.01397364928657
  C   -1.43834611562402     -1.49948838878199     -0.01292465637878
  C   -0.28079263296501     -0.78836492459184      0.00613257704228
  C   0.02781677196966      0.60614411810310      0.00238049694611
  C   -0.87110838902583      1.71241770980590      0.01982902682034
  C   -0.37328500874028      3.01639949520640      0.10762187009858
  N   0.03211990904836      4.10841123889966      0.19306971418093
  C   -2.26796641774033      1.56370408972160     -0.02680773350221
  N   -3.03816537948423      0.44545209244865     -0.03985299918589
  C   -2.74902257273259     -0.82494771577411     -0.02630525092969
  N   -3.80859056660535     -1.65574573122925     -0.02083239207915
  H   -4.72684434633926     -1.25120780963155     -0.04924582221736
  H   -3.70693740608957     -2.65475344920067     -0.02960565782462
  N   -3.04327229135359      2.67974740942486     -0.08960537036301
  H   -4.02196206433651      2.55236236244665      0.08977766645812
  H   -2.64700870878371      3.58727603357799      0.07989678982381
  C   1.41762184723783      0.29513418337013     -0.01627850259394
  C   1.16938525486453     -1.12713243266610      0.01140321465269
  C   1.92023941715808     -2.24373976159632      0.03790529899415
  C   3.34812633962284     -2.22852179907942      0.05538074825720
  C   4.16215484634695     -1.13661998777356      0.02959570703085
  C   3.87816338044354      0.25696036473522     -0.02621189625663
  C   2.68979500317369      0.95970615291447     -0.06587121138803
  N   2.70235748989325      2.31553546085937     -0.20866876278070
  H   3.57540686854685      2.79774562733587     -0.09250425332311
  H   1.88606327619444      2.86392882810509      0.00055055442055
  H   4.76546508166287      0.88137067772461     -0.05673416120824
  H   5.22386989505378     -1.35236200097906      0.05212705610677
  H   3.83410432154267     -3.19485067816365      0.09403024386848
  H   1.42150989727084     -3.20311280710778      0.05596209538054
