34
Coordinates from ORCA-job ./opt_b97-3c_parallel
  N   4.89785717754626      3.38024536991365      0.00349770396693
  C   4.09833388290683      2.53203711934665      0.00255926317280
  C   3.17421152922118      1.46953201161927      0.00122073158114
  C   1.78850290518228      1.85447851489601      0.00192334607950
  C   0.74820643010472      1.01003563856641      0.00094475567990
  C   0.67283345178919     -0.46579770503310     -0.00096708749038
  C   1.68859666503455     -1.40247340306773     -0.00238070314165
  C   3.04634235790380     -1.13087529133493     -0.00224058332410
  C   3.89607027534273     -2.25788909990477     -0.00389990831174
  N   4.63636102167322     -3.15717748883968     -0.00503455915688
  C   3.73430433229451      0.17731748038414     -0.00059831902005
  N   5.07453290446979      0.08196999357084     -0.00094404044899
  H   5.53471562409153     -0.81209774583398     -0.00210251406488
  H   5.64713248576759      0.90961368441750      0.00011809823669
  H   1.41328469688978     -2.44975177582490     -0.00372558208636
  C   -0.73415431712906     -0.42743807914845     -0.00065928634744
  C   -0.70429544612720      1.04842691477442      0.00127292052887
  C   -1.68428954872980      1.96866576162336      0.00274974602776
  C   -3.08338299794403      1.68132488098467      0.00276180911308
  N   -3.87476947551915      2.77817483748669      0.00465145266415
  H   -4.87742316335724      2.71402819618366      0.00456635102448
  H   -3.47064350582883      3.69449184396080      0.00543526571910
  C   -3.70867031065521      0.41049174761503      0.00112222028948
  C   -5.11813148258800      0.47429599214261      0.00160074253598
  N   -6.28013499306873      0.54999178866543      0.00194687398605
  C   -3.17720977225596     -0.92987598243000     -0.00087886727751
  N   -4.08616948941309     -1.93144000453555     -0.00254193834163
  H   -5.07315781279309     -1.75170873932050     -0.00075763175459
  H   -3.78786534347515     -2.89024165592162     -0.00285682487376
  C   -1.81243087094090     -1.30768084085894     -0.00158910437504
  C   -1.51702020615848     -2.68751602231090     -0.00334674370960
  N   -1.28803560785828     -3.82789530585370     -0.00461279333272
  H   -1.40687504374074      3.01611114941915      0.00413482299618
  H   1.60363144326498      2.92112836904834      0.00337467955518
