30
Coordinates from ORCA-job ./opt_b97-3c_parallel
  N   5.33621150210220      2.28745272362994      0.00359871835920
  C   4.37357676868982      1.62959136157435      0.00306043054624
  C   3.24465995077262      0.78894941168451      0.00269736907424
  C   1.98746722589644      1.42591409665931     -0.00153128230169
  C   0.79805450068405      0.76663404795843      0.00195541138675
  C   0.52524361382928     -0.68073434984346      0.01361062422603
  C   1.40547349527437     -1.77009743397239      0.00480770773238
  N   0.87008194824518     -3.00423543004565      0.00420398746515
  H   -0.12808061348855     -3.12066377850725     -0.03141396680523
  H   1.47769724952632     -3.80188229245604     -0.04135944204274
  N   2.73866998554984     -1.72273058899452      0.00168589011140
  C   3.52146995488143     -0.63669045242420      0.00716278748614
  N   4.82709818934122     -0.97029760179614      0.01489448693044
  H   5.55995201683229     -0.28302736045505      0.01805801280559
  H   5.05663702137805     -1.94702841027089      0.01581270365699
  C   -0.85261726924733     -0.45710081855542      0.00030948304555
  N   -1.91387316787596     -1.23160590104213     -0.00593433613164
  C   -3.16158303138306     -0.75811110695811     -0.02348887649988
  N   -4.11735655713630     -1.72392500962157     -0.08491303798554
  H   -5.08343983272928     -1.51030624508078      0.08582507930648
  H   -3.81187574161400     -2.66639355283479      0.07290300448757
  C   -3.61167553103547      0.61961000509653     -0.01379507377619
  C   -5.02020061751476      0.78028661324613      0.00152024434083
  N   -6.18018153076821      0.86066772618906      0.02121407319936
  C   -2.89057340769215      1.81335304521085     -0.00845058901644
  C   -1.50808678685212      2.04998527559666     -0.01014435216274
  C   -0.60108229801802      1.03852233661802     -0.00654818053867
  H   -1.17781095191158      3.08123201781887     -0.00936353466276
  H   -3.51177790870779      2.69941061043557      0.00037933205756
  H   1.99467376487132      2.50815272484010     -0.00949591299442
