27
Coordinates from ORCA-job ./opt_b97-3c_parallel
  N   4.79652800777049      0.14473605765558      0.06729634315052
  C   3.44539918118158     -0.02475934243447      0.02015346102733
  N   2.80853298920857      1.15238144256491      0.00972712728758
  C   1.47675562904316      1.32172845574989     -0.00876670228436
  N   1.06695292639418      2.60723996126990     -0.03561814844510
  H   1.74808719914155      3.32837126177082      0.11839323146537
  H   0.08690425084371      2.81275908952136      0.06465310471956
  C   0.49993518398018      0.32751167398104     -0.02533303440528
  C   0.60323236644372     -1.14769343112448     -0.00595929897543
  C   1.74283006126518     -1.91617748176685      0.01039201403098
  C   3.02451965322399     -1.39205723884287      0.01812972336979
  H   3.83505110494038     -2.10931928824812      0.04547256703637
  H   1.64883665395204     -2.99619840967597      0.02243175607778
  C   -0.80365048708688     -1.27196344800000      0.00578372746011
  C   -0.89841660644075      0.25145560702442     -0.00386779249081
  N   -1.87959686089527      1.11335246380097      0.01238654390115
  C   -3.16530799313720      0.68547961376244      0.04048156659807
  N   -4.07398259480969      1.70928573648501      0.13432954508522
  H   -5.02116535344646      1.47239397249114     -0.09933190274268
  H   -3.75127258197374      2.62127839543821     -0.13378577744707
  N   -3.73122198421115     -0.52836795375639      0.01859143289136
  C   -3.17917662430669     -1.73298599533016      0.00571706251374
  C   -1.84002826948459     -2.15988382182014      0.00852848331502
  H   -1.65981163027153     -3.22920427684809      0.00263993998179
  H   -3.91729009273544     -2.53155485675654     -0.01301420256412
  H   5.13770263089119      1.07764867660604     -0.08059001585878
  H   5.41570358851949     -0.61969770271765     -0.12601583099810
