25
Coordinates from ORCA-job ./opt_b97-3c_parallel
  N   -4.45628337862807     -2.10147002107772     -0.00175216156955
  C   -3.50414528648826     -1.42935072923098     -0.00164441368221
  C   -2.39388291460993     -0.56240680649271     -0.00147095510917
  C   -1.12726108435178     -1.15907308609320     -0.00173368542785
  C   0.05651508228842     -0.47677740233019     -0.00116135618675
  C   0.29421525044269      0.98026069281124     -0.00017538836620
  C   -0.59549559333971      2.01804443254478      0.00015719972250
  N   -1.92938237467537      1.96235402229974     -0.00012124223451
  C   -2.69918389221694      0.86583729878123     -0.00070243756968
  N   -4.00715963171991      1.17346161386097     -0.00055196216098
  H   -4.73062039002933      0.47554624892452     -0.00093871633559
  H   -4.24935866400553      2.14836495611944     -0.00011324249736
  H   -0.20372879764632      3.03181400867542      0.00068800887070
  C   1.70430549177528      0.75486500263056      0.00003654461327
  C   1.45706610429940     -0.71707309710391     -0.00122424591568
  C   2.36714215946832     -1.74236613147098     -0.00201298485406
  C   3.75676412949564     -1.56577824051815     -0.00164405276893
  N   4.51907133418449     -0.47092113641960     -0.00040611172067
  C   4.15542890681570      0.80406904841997      0.00074657753618
  C   2.89203759202597      1.42795243153599      0.00094958399147
  H   2.88824516266672      2.51245083752163      0.00195349771566
  H   5.00112966865739      1.48657862846575      0.00165069249843
  H   4.33761858650372     -2.48351666606852     -0.00244683956636
  H   2.00919431563044     -2.76637693385515     -0.00303015704776
  H   -1.10838709054310     -2.24226667163003     -0.00232204193500
