25
Coordinates from ORCA-job ./opt_b97-3c_parallel
  N   4.72234961856388      1.42293273790572     -0.00011958392158
  C   3.77257843838016      0.74923053383017     -0.00006524375780
  C   2.57083757567877      0.01046734011768      0.00006725952028
  C   1.37028003853259      0.78245244455062      0.00009935021545
  N   1.40989953486427      2.11839463904081      0.00003937202339
  H   2.28357412486239      2.61763588221521     -0.00004794950941
  H   0.54611015669756      2.63688217352575      0.00005329861683
  C   0.12106475498651      0.15913086041015      0.00016781349985
  C   -0.24213262398828     -1.26331445759403      0.00006282431661
  C   0.53031064716330     -2.38280463278882      0.00000617306880
  N   1.88224907041240     -2.43858400936219      0.00011641321322
  C   2.70074956445890     -1.40540187143184      0.00015448924117
  H   3.74464515103493     -1.71036859463789      0.00023487823077
  H   0.04555097315347     -3.35402331973697     -0.00012882340450
  C   -1.64209932491537     -0.90371983086892     -0.00004592563522
  C   -1.21939677421671      0.54685334272148      0.00010477706760
  N   -1.84824658607644      1.71167395031016      0.00011299517824
  C   -3.17157197669394      1.76848438259326     -0.00002976696678
  C   -4.15121264695637      0.74026098406670     -0.00022854981787
  C   -4.05195726546259     -0.63173298709053     -0.00032849608376
  C   -2.88154089955375     -1.43944853229469     -0.00023731561784
  H   -3.00935764274519     -2.51546401931578     -0.00035232132649
  H   -4.99187308093891     -1.17006845960767     -0.00050090385174
  H   -5.16463343738311      1.12521244763290     -0.00032553032152
  H   -3.56908664885849      2.77772778560871      0.00000187272233
