34
Coordinates from ORCA-job ./opt_b97-3c_parallel
  N   -5.91167033975953     -0.62141420817247      0.17292488738271
  C   -4.76937765997867     -0.41269651059421      0.12597192817492
  C   -3.36392515857800     -0.22212065052114      0.06471447011157
  C   -2.97105888550611      1.11948005856247      0.14118101372116
  C   -1.70833141700612      1.71197211418265      0.10840708968200
  C   -1.70803328278716      3.12513153548639      0.21995989309379
  N   -1.69324539884587      4.28344801620403      0.31463059317724
  C   -0.49888805735565      1.02675328946712      0.01941608688557
  C   -0.27029778936595     -0.47201302102616     -0.01299719837336
  C   -1.17574455125762     -1.50839648031770     -0.11634782917557
  C   -0.68252906266506     -2.81946319415976     -0.31363478107431
  N   -0.33307780612965     -3.91497264514410     -0.48687027623130
  C   -2.61284716476115     -1.41693455517794     -0.07862820632762
  N   -3.30098435765916     -2.57920701018396     -0.21446187951757
  H   -4.30055257824183     -2.58799845950636     -0.11497384454233
  H   -2.83345948211834     -3.46628192620340     -0.17751914241401
  C   1.13126751435034     -0.24808121374453     -0.01441950934828
  C   0.88154554293613      1.22936991380331     -0.02402455790416
  C   1.77802200447421      2.31825729315270     -0.13576063808076
  N   1.32153517746391      3.57682943535977     -0.26028676537923
  H   1.97319611863422      4.34035315119579     -0.25858995007250
  H   0.35085167215975      3.82047891867689     -0.15700967869354
  C   3.17088332262704      2.13451530263692     -0.16098435500736
  C   3.91296614709545      0.97766577851647     -0.04923787383645
  C   3.60567702575199     -0.37661145845045      0.08852266334158
  C   4.70978554821920     -1.24799830437366      0.20361074961048
  N   5.58503804589659     -2.01011903095833      0.30094570589592
  C   2.30525224348713     -0.99803557759061      0.10542748564116
  N   2.28660908839185     -2.32953610965792      0.28340436607863
  H   3.15327477818612     -2.84146168723386      0.28563258473169
  H   1.44784381633161     -2.87279401659391      0.19322637488150
  H   4.98099713957177      1.15874927680745     -0.06790950202272
  H   3.75492906334783      3.04033076230373     -0.26540387382942
  H   -3.79436772690927      1.81126643135472      0.24194413582057
