29
Coordinates from ORCA-job ./opt_b97-3c_parallel
  N   -3.76052127826552     -2.18493910935191      0.06002900014633
  C   -2.79050886215161     -1.20523241089670      0.05124660571665
  N   -3.26927792116267      0.02180714427840      0.02494438509372
  C   -2.66268782771455      1.22129556567092     -0.02548093815191
  N   -3.55698465679224      2.26951198561534     -0.00155002511014
  H   -3.19775235061425      3.14735250903717     -0.33216827983907
  H   -4.49184329187645      2.04040174132197     -0.28785233723830
  N   -1.38024357032167      1.59925567661404     -0.04272327287089
  C   -0.42120163523273      0.69461701644002     -0.03230594523341
  C   -0.39185488471476     -0.83258531086062     -0.01975472169142
  C   -1.43918554779774     -1.68305401522319      0.02512946481680
  H   -1.28894160337127     -2.75769868333471      0.04864206909868
  C   1.03191984485938     -0.77465130904409     -0.02543342715504
  C   0.96548654768951      0.71141447840840     -0.03463737147204
  C   1.98738135675169      1.66385189384356      0.00366296042737
  N   1.63478332016705      2.96901270690641     -0.03321036726797
  H   2.31004789586184      3.68225053578665      0.17137546394859
  H   0.66021120197329      3.20437373997030      0.05677626211935
  C   3.33601833976994      1.27948860113833      0.05723680906916
  C   3.87735071742354     -0.01366668933065      0.07309279282798
  N   3.42885165355647     -1.25664632682360      0.03583328536727
  C   2.11468860992866     -1.62167714095917     -0.01817004471231
  N   1.94921667486075     -2.98281344687904     -0.02280139925232
  H   2.79047697955602     -3.49000352565064     -0.24263272866864
  H   1.10592492908024     -3.34910175248487     -0.42776099703446
  H   4.96571876459011      0.00587951719868      0.12304461344875
  H   4.07008109400673      2.07598089182559      0.08731059756763
  H   -3.51829958020910     -3.08276651036546      0.44026546752982
  H   -4.67945134025060     -1.85468647505117      0.30157023671974
