27
Coordinates from ORCA-job ./opt_b97-3c_parallel
  N   4.33683181121298      1.91363309680038      0.00036240473755
  C   3.42051897440542      1.19095304589482     -0.00025223478487
  C   2.30745673311608      0.33647974124731     -0.00104183257275
  C   1.04048419946947      0.97744227786004     -0.00189342747620
  C   -0.15338666347228      0.25587768677527     -0.00272102897395
  C   -0.41073591566077     -1.18145801786129     -0.00245511993895
  C   0.46613312953414     -2.23129833069017     -0.00170085086964
  N   1.79799512649588     -2.17672848380532     -0.00141480545224
  C   2.57785960774436     -1.08611095838346     -0.00142962173867
  N   3.88643946540107     -1.42196834405857     -0.00178025701807
  H   4.10366339675502     -2.40164914375904     -0.00135989126605
  H   4.62693853301507     -0.74415968026855     -0.00140604611598
  H   0.06703369547519     -3.24153924685120     -0.00135287839116
  C   -1.82583373321573     -0.94390668518921     -0.00296861210468
  C   -1.52357190471338      0.54086850398286     -0.00315796860580
  N   -2.23979706721419      1.64777640551495     -0.00341782469701
  C   -3.57047741113209      1.59743574806157     -0.00375719369686
  C   -4.46012621077230      0.50210429372578     -0.00391790687570
  C   -4.24907712791295     -0.86381760027065     -0.00368492399640
  C   -3.02636174600771     -1.57439133651853     -0.00321145568701
  H   -3.07029203444884     -2.65732550215321     -0.00302516902996
  H   -5.14474124475354     -1.47345261596974     -0.00386302344811
  H   -5.50175099802890      0.80270540925433     -0.00425745177760
  H   -4.04375688406816      2.57357800275061     -0.00395408511808
  N   0.95248721757354      2.31741425002812     -0.00192899843156
  H   1.76915144696000      2.90269180792696     -0.00114630783470
  H   0.04104885074261      2.74514839845592     -0.00228583913550
