28
Coordinates from ORCA-job ./opt_b97-3c_parallel
  N   -4.55302611897383     -3.07942747060882      0.00030364139308
  C   -3.68620699854902     -2.30619569995240      0.00041283370895
  C   -2.61066433402778     -1.38097751984228      0.00037224263569
  C   -1.30202114972263     -1.92618558195767      0.00027464487599
  C   -0.17430074095167     -1.17865121324655      0.00018391804472
  C   0.11159363602283      0.27150972091798      0.00014179428032
  C   -0.78827040305308      1.36011521542122      0.00027669766926
  N   -0.33065719417815      2.61157291923087      0.00029181727716
  H   -0.96952006727725      3.39097590037123      0.00038228011054
  H   0.65387450525795      2.82546726658445      0.00020345933438
  C   -2.21051653155649      1.16001972595416      0.00040997394551
  C   -2.97718164310114      2.34902720556487      0.00052875455094
  N   -3.54531145555249      3.36416233737616      0.00068472427089
  C   -2.95250552067855     -0.03115599379334      0.00043463014412
  H   -4.02033436965289      0.14456028801714      0.00052719037871
  C   1.49500732290320      0.02530597107501     -0.00000299192952
  C   1.24016408430338     -1.44546809583757      0.00004108595340
  C   2.08383153391331     -2.49995615809457      0.00001606426519
  C   3.50296367491969     -2.38322841089936     -0.00007795476540
  N   4.29032220509306     -1.33337035378864     -0.00026223112224
  C   3.97879074324782     -0.03018937945288     -0.00037873772393
  C   2.74926891936609      0.64508851518205     -0.00022023676343
  C   2.81589188373595      2.06264076422093     -0.00028099844977
  N   2.83133949506879      3.22420803540323     -0.00003852949638
  H   4.85028266470285      0.61475327557381     -0.00059993006483
  H   4.04018228287884     -3.32764842078911      0.00000888254939
  H   1.67725442280815     -3.50474822563584      0.00010009658792
  H   -1.21092474034691     -3.00449481519409      0.00026039823934
