29
Coordinates from ORCA-job ./opt_b97-3c_parallel
  N   -5.03658229727013     -1.54908307517149      0.00015528059976
  C   -4.02149462635141     -0.97850665919938      0.00108636233665
  C   -2.83843603801773     -0.20982797688555      0.00191765248484
  C   -1.62445922341736     -0.92582932210608      0.00122407245305
  C   -0.37834012904933     -0.37770812787152      0.00181069936914
  C   0.07285643060410      1.02970087031259      0.00329305803628
  C   -0.67720658661428      2.19205137298870      0.00447046046959
  C   -2.05088862750520      2.25285392262525      0.00448200013109
  C   -3.02767406548299      1.21320171355779      0.00338269342258
  N   -4.30403799402557      1.64398382898324      0.00379267281215
  H   -5.07605432233445      0.99848983670565      0.00301893795272
  H   -4.51547852860074      2.62397487317007      0.00471716777990
  H   -2.47181188158780      3.25057092901514      0.00549348657267
  H   -0.14869989208075      3.13761177013570      0.00546476937464
  C   1.41830142791386      0.62004022962904      0.00291800168939
  C   0.98419388709895     -0.80855439244889      0.00139722280243
  C   1.71473414637403     -1.96759511963823      0.00018627846494
  C   1.00256094995563     -3.19752665821281     -0.00112838529262
  N   0.40384328740951     -4.19166067384445     -0.00202888072467
  C   3.13568062800133     -2.01719622648211      0.00016495734812
  C   4.03886025335373     -0.97362877070057      0.00130737712654
  C   3.87918505917218      0.41854364112351      0.00279187974228
  C   2.69641182957197      1.16465776299793      0.00354443792457
  C   2.79041071624503      2.58343430909988      0.00507011450375
  N   2.82458610104852      3.74347761498823      0.00634049578576
  H   4.79421370891871      0.99383498160687      0.00343975418500
  H   5.07471298141174     -1.29069486641380      0.00099978920450
  H   3.56036267141143     -3.01128717487978     -0.00088759977990
  H   -1.70997046765334     -2.00494190688428      0.00011847792493
