30
Coordinates from ORCA-job ./opt_b97-3c_parallel
  N   4.86608329576810      1.54466391895010      0.15817494274625
  C   3.87533599126122      0.92881845800792      0.09211686104099
  C   2.67509727243066      0.20867481714945      0.01660893368536
  C   1.49250145971864      0.99472121117648     -0.00794402363501
  N   1.60535872422291      2.34756481051300     -0.02991423472939
  H   0.80098465790079      2.89260739157438      0.21671662576817
  H   2.49902059811137      2.77209502248555      0.15356929773741
  C   0.21966776960055      0.42895195375533     -0.03695331997169
  C   -0.16467284753367     -0.98382030346968      0.02620080865508
  C   0.57312804826186     -2.12143793640028      0.03505914101222
  N   1.91202290695442     -2.23378902656776     -0.02847950286812
  C   2.79445073491233     -1.24285262185983     -0.06019660448895
  N   4.06605647881311     -1.69689967174997     -0.17849840282359
  H   4.86536824910110     -1.09232165063447     -0.12481642807584
  H   4.19303708734770     -2.69079732252073     -0.12294258520275
  H   0.05629335149574     -3.07567374150242      0.08658121143611
  C   -1.55549485829374     -0.59202434648265      0.02790678630303
  C   -1.13271684689967      0.83644417945948     -0.04190410208041
  C   -1.92679334611414      1.96616869516343     -0.10035822370629
  C   -3.31441214232559      1.94615571896322     -0.08489426874114
  C   -4.21523989584749      0.87938691263935     -0.01598321631862
  C   -4.02079058832014     -0.49876885547612      0.05935191701268
  N   -5.14135696812300     -1.30377704558318      0.18015863243300
  H   -6.01651736863539     -0.89610335280452     -0.10077762502776
  H   -5.04288556615131     -2.25582846781862     -0.12763010772272
  C   -2.77127817402592     -1.18080073935037      0.08125720636130
  H   -2.80737027705849     -2.26331153118308      0.15100598278537
  H   -5.25744352821276      1.18238593159979     -0.02046670257796
  H   -3.78882261176181      2.91838303884356     -0.14428589124890
  H   -1.45909919039738      2.94118920602264     -0.18160176855782
