29
Coordinates from ORCA-job ./opt_b97-3c_parallel
  N   4.46690740709709      1.73466678337400     -0.17636393917389
  C   3.45758743782118      0.78218826171342     -0.06254025826308
  C   2.12859624655598      1.30866172120961     -0.06896714158516
  C   0.99845861295753      0.57511749484218     -0.01971108747413
  C   0.75231906989387     -0.89935140174428      0.02244578829384
  C   1.68714816690393     -1.92573170130839      0.05805071403103
  C   3.05554719935421     -1.73510096186461      0.03772854739681
  C   3.81962944998989     -0.55524632864519     -0.01300180143686
  H   4.89165603484918     -0.72798121174755     -0.01382887454826
  H   3.64969221504530     -2.64037206847148      0.07831873211408
  H   1.34131255326483     -2.95206054904153      0.12339997931560
  C   -0.63096861284944     -0.66252448888380      0.03121429033121
  C   -0.43426474863341      0.79128819751522     -0.00571174138604
  C   -1.30532835404094      1.83068678103816      0.01233252218025
  N   -2.65400128528244      1.78656899847485      0.04281551039136
  C   -3.38544999656704      0.67578067221251      0.07156213904426
  N   -4.73021260434516      0.95101506939067      0.15158923116237
  H   -5.39049044948175      0.25765266949441     -0.15024639471023
  H   -4.96747502642653      1.90741647520114     -0.04908340314669
  C   -3.07959071509425     -0.71919094701821      0.05863032185480
  C   -1.84878181917057     -1.36094146974365      0.04203937536665
  N   -1.80481607145344     -2.73241394509769      0.08551401845586
  H   -0.96412178329982     -3.16114352293734     -0.25847868778688
  H   -2.64223818270778     -3.22628847783104     -0.17042882090020
  H   -3.94468066437392     -1.37247785496712      0.09945928852355
  H   -0.90262170315804      2.83994141140621     -0.00791200211190
  H   2.03262977872889      2.38869491550431     -0.12135164740897
  H   5.38355496453705      1.42571018058768      0.10115183737037
  H   4.24965842538560      2.64024823193752      0.20507838600021
