33
Coordinates from ORCA-job ./opt_b97-3c_parallel
  N   -2.85776303320346     -3.60808681668458     -0.37865979913383
  C   -2.76803099776641     -2.45276553576885     -0.27479514045359
  C   -2.60736898985454     -1.05251096746107     -0.15332651567615
  C   -1.32014330155389     -0.51422409914964     -0.06075672288123
  C   -0.95642544109221      0.94652013171146     -0.03079515719898
  C   0.42405846684011      0.58084763190078     -0.01429290843126
  C   0.03683402629586     -0.84363431062258     -0.01839294673868
  C   0.86015668065616     -1.98820429216703      0.10471142793352
  N   0.29007442684923     -3.21043714077040      0.20078574433596
  H   0.86575104014515     -4.03126481082439      0.16756127624954
  H   -0.69114567221831     -3.35148371689186      0.02963274708766
  C   2.24745609271144     -1.90434565679865      0.18995868982679
  C   3.14002717813585     -0.81624068834866      0.12917779646968
  N   4.45257730580589     -1.17205075468339      0.24959686743031
  H   4.71039204714856     -2.12957241989273      0.10203659235448
  H   5.17172651338026     -0.49238104648451      0.07171099751061
  C   2.89469744940348      0.57943612522750     -0.01614431999133
  C   4.02527650215076      1.39935361267382     -0.14610859201826
  N   4.96461022223454      2.08400983765571     -0.25921834355769
  C   1.62658954565969      1.24463156298018     -0.05818601383318
  N   1.63187201591380      2.61727308570456     -0.11093116841075
  H   2.50186838204528      3.06431656578311     -0.35044206927470
  H   0.83201508250376      3.04454900522152     -0.54149231549697
  H   2.74080796769300     -2.85845212467790      0.33927369601194
  C   -1.73590645715063      2.04846331697888      0.04291630867971
  C   -3.16619057997128      2.02441446315737      0.07095990581969
  N   -3.77874352233018      3.24875349898597      0.18354591960356
  H   -3.27717091394806      4.00489815102629      0.61395979189803
  H   -4.76406855045901      3.20904482285980      0.38168616135575
  N   -4.01285578615110      1.01296766628458     -0.04629943993432
  C   -3.78632878245651     -0.28911492935116     -0.17024200656772
  H   -4.69686700946859     -0.86852700464349     -0.28188286622403
  H   -1.27000340664868      3.02490227196878      0.11842599665517
