26
Coordinates from ORCA-job ./opt_b97-3c_parallel
  N   -4.95643162448682     -0.35344136505188     -0.11892797184942
  C   -3.57979494740593     -0.27773822589137     -0.04398274873907
  C   -3.10412604306681      1.10756549772155     -0.06659097867942
  C   -1.84205584587385      1.59760159865397     -0.04567589629787
  C   -0.66119300292301      0.82548723384588     -0.00724553480663
  C   -0.53537249289375     -0.64032304621903     -0.00212203573775
  C   -1.44595660891452     -1.63225698200965     -0.00900986020283
  C   -2.86080104893780     -1.44676930592078     -0.01389212779196
  H   -3.44819238060006     -2.35818054898120      0.00353835058136
  H   -1.08818723179632     -2.65467941010629      0.00428152594279
  C   0.91673932170208     -0.48005962741026      0.01948577304583
  N   1.91046405327768     -1.28689661736266      0.03284652298298
  C   3.19360148141031     -0.74965366295016      0.04392799982026
  N   4.12943482384388     -1.74447975053568      0.10329213322954
  H   3.80000470768404     -2.66401639971165     -0.13111485108092
  H   5.08110415246707     -1.53594413549815     -0.13753289484311
  C   3.59164975066096      0.57690906466912      0.03767034328872
  C   2.85994382272508      1.79193016182661      0.02927615122951
  N   1.56814217657835      2.04787231087328      0.01693982729774
  C   0.71989256259033      1.01608482628582      0.01253357046529
  H   3.48651386491521      2.67973229900584      0.02926325002315
  H   4.66659197735601      0.72451743542233      0.05061244929858
  H   -1.72695428143354      2.67537863135865     -0.06483204472489
  H   -3.89865598155173      1.84239876565268     -0.12442518664691
  H   -5.37510978181760     -1.24242803969498      0.09473837340747
  H   -5.47819179320924      0.42862690272793      0.23719020758756
