26
Coordinates from ORCA-job ./opt_b97-3c_parallel
  N   -0.81100014894842     -4.25537657062619     -0.00244786687180
  C   -0.16407702406405     -3.29038527264870     -0.00230237825323
  C   0.57991606890514     -2.08666743317276     -0.00224530057976
  C   -0.12772337359226     -0.85905219394662     -0.00180630492642
  C   0.41448143245015      0.48577051145769     -0.00221935040717
  C   -0.96432500722275      1.02840460228285     -0.00193040741141
  C   -1.43618164211267     -0.35416899322531     -0.00151779769512
  C   -2.78012475791034     -0.83374905528455     -0.00158194757263
  N   -3.86476033491673     -0.12694764717611     -0.00137458891751
  C   -3.95897173260980      1.25862656394226     -0.00095816276615
  C   -3.04800632561620      2.26702176831148     -0.00139365582529
  C   -1.60805605462341      2.20265082653415     -0.00197007453125
  H   -1.05243112356385      3.13025733123937     -0.00233042866127
  H   -3.47218746847913      3.26394228101667     -0.00117707612514
  H   -4.99608380928549      1.57306389749166     -0.00035662106408
  H   -2.92033395983704     -1.91190459464088     -0.00194520249479
  C   1.67055590662455      0.98359955755993     -0.00272397983246
  C   1.86947826145253      2.38178130486056     -0.00314627792675
  N   2.09288271456475      3.52289759593156     -0.00348685230676
  C   2.85702396625201      0.08993242165935     -0.00246194470906
  N   4.04079691585985      0.73068742284692     -0.00190995734568
  H   4.87507080444538      0.17078970226778     -0.00181994362640
  H   4.11810252014176      1.73187022870081     -0.00184025247424
  N   2.91815538633746     -1.21474699542390     -0.00268305751693
  C   1.95887833884796     -2.16114726311370     -0.00285470766058
  H   2.36988653940071     -3.16390834584435     -0.00343872439808
