27
Coordinates from ORCA-job ./opt_b97-3c_parallel
  N   -1.97126800394810     -3.35822034699006     -0.01740610858394
  C   -1.88972513557884     -2.19764279092298     -0.01153492351801
  C   -1.85689740292637     -0.78715300792454     -0.00396247059134
  C   -0.68037976315205     -0.12342062557219     -0.00803247775047
  C   -0.37822164759155      1.32422498517280     -0.00183422143541
  N   -1.14347662520089      2.42309554936106      0.00924162010669
  C   -2.44770967241746      2.31471768245461      0.01747464896854
  N   -3.31674841500155      1.26664193102025      0.01632455795599
  C   -3.12846876375906     -0.02453482436929      0.00729037480374
  N   -4.24274004927390     -0.78757239572330      0.00865937959899
  H   -4.21341699289950     -1.79079907197417     -0.00243217567601
  H   -5.12982925734401     -0.31724937797075      0.01232834770379
  H   -2.97339859235596      3.26346263993464      0.02689609250336
  C   0.99019592742425      1.03981701459917     -0.01432640556505
  C   0.75155918343255     -0.40803297710762     -0.02044554138357
  C   1.57823515643150     -1.47069731663312     -0.02937817259101
  C   3.00353142848649     -1.39150862711311     -0.02361525726137
  C   3.81283020064259     -0.28468555056603     -0.03908994658649
  N   5.18135536356194     -0.46254948787650     -0.11076621083835
  H   5.75953417680090      0.26797023884005      0.26727210041405
  H   5.52966356213243     -1.38503168763728      0.08709082956032
  C   3.44282552671102      1.13355658859963     -0.05211634800344
  C   2.22665257019583      1.72453492283259     -0.03580379977240
  H   2.19448188432377      2.80750796252034     -0.04593924257785
  H   4.29272646661325      1.80483792954795     -0.09551434570606
  H   3.51621623106392     -2.34664176851942     -0.01047512398576
  H   1.14729590402880     -2.46371648218292     -0.02692006298912
