22
Coordinates from ORCA-job ./opt_b97-3c_parallel
  N   -4.57730177385380     -0.06641887601733      0.00211601207042
  C   -3.22775472066905     -0.05885233580209      0.00214266566389
  N   -2.70406363178650     -1.27527582954496      0.00201471125986
  C   -1.38530960526339     -1.56827774370758      0.00202851258087
  C   -0.33592667996988     -0.70403739074825      0.00240788327771
  C   -0.27655228533445      0.77117031444793      0.00266243284541
  C   -1.35466412015661      1.66535419520482      0.00249634536202
  C   -2.66093529400125      1.28964320567547      0.00218556424134
  H   -3.39521003549038      2.08555805637741      0.00200628692250
  H   -1.13514215561129      2.72668581977943      0.00258565089664
  C   1.11460054693540      0.77310712479923      0.00285544451762
  N   2.10172987045553      1.65831187906446      0.00341128669509
  C   3.34644047659065      1.21252728068902      0.00364190624923
  N   3.88734636571425     -0.03580471518393      0.00309238288922
  C   3.33128342200326     -1.21730909366304      0.00251030848218
  N   2.01940822009857     -1.65802913402729      0.00245387358460
  C   1.10288040548551     -0.75454380891385      0.00260013764654
  H   4.03486298793512     -2.04382736258868      0.00200500061218
  H   4.09957103200495      1.99194304847259      0.00428996764305
  H   -1.17076610977653     -2.63149992472973      0.00177346181424
  H   -5.12515521126557      0.77279060044409      0.00303707025163
  H   -5.04066064644453     -0.95842690392771      0.00254883429375
