23
Coordinates from ORCA-job ./opt_b97-3c_parallel
  N   -3.82335303851098     -1.63584814506171     -0.05882357540090
  C   -2.86317034627060     -0.68112338175801     -0.02362726019867
  N   -1.59493233207207     -1.27224771852803     -0.02194857932308
  C   -0.57791705900656     -0.50042217749223     -0.01771979669071
  C   -0.31094702540418      0.96323584650732     -0.01406623576941
  N   -1.11386895282762      2.03908966396459     -0.01122225192551
  C   -2.41111167630799      1.83944149082301     -0.01209328164286
  C   -3.20328821288678      0.65994530112429     -0.01470877590872
  H   -4.26961804650719      0.85746733817502     -0.01603140602037
  H   -2.99753682991252      2.75441783832792     -0.00754245843903
  C   1.06590949274898      0.71591300899948     -0.00695375370148
  C   0.88694173039888     -0.73500383564874     -0.00889289028253
  C   1.76090109190982     -1.74844787145359     -0.00472038357176
  C   3.18736434677218     -1.51546330271540     -0.00423405705600
  C   3.87100031261968     -0.34433175144454      0.00278603402970
  N   3.49645199939410      1.00057557095375      0.02886557088396
  C   2.28689868390572      1.45680932867471      0.02243944412050
  H   2.19499071809965      2.54085600689832      0.04748173313677
  H   4.95089189544455     -0.43885030626220     -0.00611969483884
  H   3.80859725080602     -2.40370605058698     -0.01524726399692
  H   1.40491938138848     -2.77003418568421     -0.00742501450268
  H   -3.53522455621621     -2.58746727300365      0.07593797518285
  H   -4.78961947496536     -1.40653852640912      0.07841831221565
