35
Coordinates from ORCA-job ./opt_b97-3c_parallel
  N   5.66668163159071      1.75418672596143      0.00376386428945
  C   4.72275305815537      1.06761270067781      0.00259346342246
  C   3.57578743909592      0.25830180519808      0.00115724274901
  C   3.82173790060333     -1.18512524831606     -0.00132875587848
  N   3.03207629037104     -2.25070736290570     -0.00124237009582
  C   1.69093791229444     -2.24572650371281      0.00008203542801
  C   0.86871317426063     -1.16577379489507      0.00046098418988
  C   1.10145447823216      0.29800107879469      0.00015912603357
  C   2.34857613163382      0.96825627912403      0.00095849146331
  N   2.38564724344408      2.30847941989421      0.00182350673352
  H   1.55075454417646      2.86692215889908      0.00195614040534
  H   3.26451244788321      2.79796539002412      0.00241814340393
  C   -0.27669447478057      0.55405294746884      0.00054612873706
  C   -0.53488982902768     -0.91493295843494      0.00077879263176
  C   -1.68123160050466     -1.65243160365142      0.00102636525993
  C   -1.55441744436683     -3.06282045063786      0.00111370916014
  N   -1.49846930309135     -4.22306656774914      0.00111208797741
  C   -3.01908190116457     -1.11323675451740      0.00115253390969
  N   -4.00715866764300     -2.03147430592653      0.00117528642350
  H   -3.79614072405400     -3.01333802622734      0.00094724705587
  H   -4.97481451281218     -1.76260501130960      0.00131600955667
  C   -3.38250290992592      0.25386645162185      0.00121738357620
  C   -4.77950786088360      0.45875075956303      0.00115628949641
  N   -5.93371831702673      0.61149117402591      0.00109481896389
  C   -2.61357026391533      1.46975929211616      0.00142597364633
  N   -3.33288074322371      2.61858365112584      0.00301797393166
  H   -4.33596777391932      2.61162571472950     -0.00008585597687
  H   -2.87752358994370      3.51268522449325      0.00000094610942
  C   -1.20153206825651      1.60507864599406      0.00083255053913
  C   -0.71062020359825      2.92375460234018      0.00032010188250
  N   -0.32410815548198      4.02274595482779     -0.00020926531657
  H   1.24443227645398     -3.23333307605142      0.00058329531923
  N   5.12783385230684     -1.52622211515715     -0.00395729515554
  H   5.87542613523748     -0.85607894390422     -0.00408691340979
  H   5.33678901198031     -2.50843025148321     -0.00481346816223
