30
Coordinates from ORCA-job ./opt_b97-3c_parallel
  N   -5.60385665589435     -0.99567889484014     -0.00162748107270
  C   -4.44284747259764     -0.91548362639877     -0.00975725765713
  C   -3.03656978297595     -0.75451174230154     -0.01508817536993
  C   -2.30915933934368     -1.99124920740485     -0.01072140604070
  C   -0.96644762365528     -2.24355649948481     -0.00694763648672
  C   0.02120001681491     -1.25886747215178     -0.00273448008464
  C   -0.14102909579488      0.20958526112380      0.00173650545421
  C   -1.22477196009691      1.02816666651541     -0.01282081502060
  C   -0.98511318718091      2.42515805549185     -0.00055524379971
  N   -0.81859224460615      3.57503574699508      0.01524724118592
  C   -2.61283815137812      0.58316640623435     -0.02757899413546
  N   -3.53608226421123      1.57677463506285     -0.08933825872278
  H   -4.51249429296948      1.35931554389379      0.00788387605701
  H   -3.26488460100835      2.53053838744923      0.06778994264946
  C   1.30519201737289      0.36449889070199      0.01534587368502
  C   1.41368245278857     -1.10441356218890      0.00978614602230
  C   2.57742114730293     -1.89118806229772      0.02849476110275
  C   3.85049532589007     -1.41775543164624      0.04331493354819
  C   4.34386899160057     -0.04463761589436      0.03612904618516
  N   5.71679074181090      0.01935498219430      0.10240265517432
  H   6.15181132930942      0.90500493041638     -0.08872693451258
  H   6.24176821538553     -0.77277731621078     -0.22321684863697
  C   3.63786765485688      1.13798918073066      0.02269684079343
  C   2.23198091520362      1.34543352969736      0.02395132080523
  H   1.89706862227650      2.37469203408817      0.02056621044055
  H   4.23732381605765      2.04084297068160      0.01596657831941
  H   4.63275881324285     -2.16642381240563      0.08138262207121
  H   2.45731893718263     -2.96908692344425      0.03457637082570
  H   -0.65809636026587     -3.28194875015912     -0.00314445853184
  H   -2.95376698591715     -2.85941915904791     -0.00740240884813
