28
Coordinates from ORCA-job ./opt_b97-3c_parallel
  N   -5.95783083547508     -1.88487966265621      0.00302832759825
  C   -4.97530901420750     -1.26548126676550      0.00273607589861
  C   -3.79102865688986     -0.48106431951124      0.00243632652090
  C   -2.60266791859587     -1.16444908413084      0.00124720714185
  C   -1.34038496483197     -0.54740767306988      0.00087311995482
  C   -0.99264195639975      0.87186853634079      0.00171898714162
  C   -1.71565424672687      2.00029437405376      0.00286497771130
  C   -3.15927138330385      1.99933034595363      0.00359869978403
  C   -4.02549133710726      0.96119595587268      0.00340975612085
  H   -5.07480963746508      1.22313925285910      0.00411736154347
  H   -3.61565292026448      2.98130772743568      0.00444299015619
  H   -1.21512646153642      2.95855233061904      0.00332471458346
  C   0.43044234978516      0.46264141441751      0.00079110731522
  C   0.01643046474890     -0.92729076641990     -0.00007176578603
  N   0.67836711221166     -2.09783515075071     -0.00122778672834
  C   1.97700488336253     -2.11676599768726     -0.00169155379450
  C   2.98818102381970     -1.07848256114145     -0.00119152414843
  C   4.31252002310207     -1.57181418609191     -0.00183286077561
  N   5.42348759963826     -1.91835958526658     -0.00227905630941
  C   2.89228175231798      0.32274994752353     -0.00005723961551
  N   4.00618889986709      1.06669505058621      0.00027205489603
  H   4.91498833404781      0.63367757731335     -0.00031593170762
  H   3.96314564652810      2.07100953096009      0.00106306173666
  C   1.63670426437522      1.08059921350974      0.00089876833578
  C   1.70368958274896      2.49054850054280      0.00208075377997
  N   1.80413222295288      3.64911402440615      0.00306136685016
  H   2.41056667090764     -3.11193750284020     -0.00262117611665
  H   -2.63457340260997     -2.24602785746241      0.00062050521295
