25
Coordinates from ORCA-job ./opt_b97-3c_parallel
  N   4.79047435281052      1.30206869838846      0.00314185026375
  C   3.81368345084791      0.66780888921833      0.00197988195790
  C   2.58178016604043     -0.02015901743722      0.00055405743098
  C   1.42246760912443      0.80619836102707      0.00001526248193
  N   1.56385861759849      2.14037420465076      0.00068979194398
  H   0.76300779163504      2.74153569913721      0.00112698858984
  H   2.47551025965390      2.56689110962264      0.00215118573633
  C   0.13494687116754      0.24962165984349     -0.00137171987712
  C   -0.24038529957734     -1.17189099024968     -0.00219466020669
  C   0.47409837845251     -2.32261987138467     -0.00214081847758
  N   1.82728518093955     -2.44724816848423     -0.00123962567868
  C   2.67340183520697     -1.44615060244574     -0.00013902364279
  H   3.70956164156960     -1.77699610181624      0.00044269475616
  H   -0.06649861114165     -3.26239246894193     -0.00290927319428
  C   -1.63631431148715     -0.77650648469015     -0.00314485292076
  N   -2.75397176834937     -1.41193512595681     -0.00426447928171
  C   -3.94228176903822     -0.73785508832938     -0.00497300210660
  C   -4.21994188527352      0.61120172450640     -0.00481448330651
  C   -3.38390274334006      1.75014580779584     -0.00384667801506
  C   -2.00420987444296      1.80275324184931     -0.00268589674787
  C   -1.20213593148012      0.67097499872685     -0.00228018455178
  H   -1.55173581587599      2.78942804864844     -0.00214179624224
  H   -3.90004328967803      2.70174089125627     -0.00405886321512
  H   -5.28080908821186      0.83460075678972     -0.00560385466780
  H   -4.80006666635060     -1.39948724082474     -0.00583199352832
