30
Coordinates from ORCA-job ./opt_b97-3c_parallel
  N   5.34731321435148      0.24795151560338      0.00850060643771
  C   4.18239619940536      0.25419047839393     -0.00456899209501
  C   2.77326478546971      0.30732578934362     -0.01323038416577
  C   2.26029720128058      1.61845724202080     -0.01044509663289
  C   0.88198508190168      2.01917886109239     -0.01530254779523
  C   -0.16249970583595      1.18347073551478     -0.00483087023961
  C   -0.29047879573972     -0.28173546821645      0.00363373069835
  C   0.73699214983278     -1.25326341987984      0.00626059261921
  C   0.35707020193022     -2.60581453574724      0.02975557316539
  N   0.03992232875095     -3.72734331178782      0.05370772014178
  C   2.11733438404698     -0.98668470562285     -0.01929060974411
  N   2.95862893391590     -2.05303230472173     -0.08524937492505
  H   2.59360676822788     -2.98090001836707      0.03667937999001
  H   3.94261592243410     -1.93775889921029      0.07691038585683
  C   -1.68416678534674     -0.15943248930552      0.01105114397683
  C   -1.62491689055676      1.30088268657378     -0.00113180679701
  C   -2.56080525709931      2.26420047982381     -0.00200358726227
  N   -3.92099109927396      2.07193562491089      0.02203255441833
  C   -4.50266317715490      0.90544602703722      0.02716344610402
  N   -4.12372404111288     -0.40647260422847     -0.00342637907068
  C   -2.91127233629972     -0.92157386846626     -0.01178672923420
  N   -2.84442971050609     -2.25906368679663     -0.05168142937642
  H   -1.98048891874648     -2.77409083161181     -0.04309121737700
  H   -3.71458769272963     -2.76330999196604     -0.06231987653127
  H   -5.58699910033740      0.97618343445725      0.05752174207953
  H   -2.25499588390328      3.30513125308088     -0.01624301694341
  H   0.68749890586556      3.08488394910977     -0.02232736922572
  N   3.12944531994773      2.65218901334184     -0.00918892966806
  H   4.12459201305572      2.51183210442123      0.00478724435569
  H   2.79393343152613      3.59555981390243      0.01470671804007
