32
Coordinates from ORCA-job ./opt_b97-3c_parallel
  N   5.48680720689601      2.05123500632513     -0.05276877100452
  C   4.58893170731884      1.30867900835236     -0.02722921028502
  C   3.55682236694527      0.35115946283958     -0.00025840651735
  C   2.20081483147503      0.87216421103529      0.01292477728498
  C   1.09663239005807      0.11897282866009      0.01361261621935
  C   0.86330326192357     -1.33115832312436      0.00849797601129
  C   1.81322697998393     -2.36887495515453      0.01285553552883
  C   3.15641857318560     -2.19599409632127      0.01704944892607
  C   3.97023829008662     -0.97917214520091      0.01134597883127
  N   5.30142362169426     -1.25452334407905      0.05885111239454
  H   5.97044851975670     -0.50919777715176     -0.04266859174918
  H   5.62619488458149     -2.17896542001449     -0.15277258842406
  H   3.74546152311620     -3.10478348680413      0.03996206134174
  H   1.44282717524569     -3.38713286872540      0.01785360095652
  C   -0.52868969218357     -1.16804260663060      0.01200343780586
  N   -1.58037840845525     -1.98197322957389      0.01061568669227
  C   -2.81587392845749     -1.53925811410108      0.02224929259223
  N   -3.76054267208862     -2.51671530770278      0.08560019757323
  H   -3.42517804671783     -3.45373479888111     -0.04693565556880
  H   -4.72632550999814     -2.33343194657275     -0.11695459556651
  C   -3.34465601007930     -0.16782096741901      0.00764144783445
  C   -4.74989680453432     -0.07411072291379     -0.01261940364400
  N   -5.91037268460053      0.03062874731920     -0.03614499632465
  C   -2.69742209421755      1.07782009758941      0.00548821334137
  N   -3.43737485752065      2.20070844012595     -0.00779052789497
  H   -3.00126022551789      3.10565750639419     -0.01236756251272
  H   -4.44188852462672      2.16386869213859     -0.01475257999055
  C   -1.25409417214068      1.30475859347480      0.01729332636855
  C   -0.78907324882725      2.63994454554240      0.01939518937016
  N   -0.45086101976003      3.75190553625642      0.02018657203143
  C   -0.35943478361347      0.28844235043619      0.01570952451149
  H   2.11036673187194      1.94930405848132      0.01442868356674
