33
Coordinates from ORCA-job ./opt_b97-3c_parallel
  N   -0.92401541331753     -4.16267588728170     -0.25579414015160
  C   -1.08710806010928     -3.01536126415804     -0.14202642731137
  C   -1.32480198952737     -1.62938885479450     -0.03332037374903
  C   -0.23912366862267     -0.77196684546899      0.00863531251454
  C   -0.19459339774360      0.75120046396487      0.00517965439129
  C   1.20293259487202      0.70233236455813     -0.00915397937982
  C   1.16521649263284     -0.80151703656376      0.01994722495276
  C   2.21878542957205     -1.71061426768344      0.12573980265004
  N   2.02016892929066     -3.03921996341975      0.27789237954650
  H   2.80853587536711     -3.65591216756792      0.20891067027695
  H   1.11689063287185     -3.46212876684947      0.15816118133816
  C   3.56636894092521     -1.26757373701844      0.13622671784257
  C   4.08475093259399      0.00544657613070      0.01923228617729
  N   3.60007826115651      1.23580869717259     -0.15189626015134
  C   2.30300674220331      1.57554168701135     -0.17872255375801
  N   2.11400536703984      2.88482096773346     -0.43085306636054
  H   2.94385569838880      3.45221987244686     -0.43888523361791
  H   1.22528084923061      3.34210915133226     -0.33205950035227
  H   5.17209179658472      0.01893142788841      0.06594483908281
  H   4.31265748261262     -2.04355294881486      0.25872487897775
  C   -1.23961652229796      1.66646867875724      0.07194454953444
  C   -0.93317958054748      3.03336593948211      0.22783775701331
  N   -0.71716668079208      4.16811460707581      0.37776302292977
  C   -2.62790172858456      1.33995348056733      0.04796045962094
  N   -3.51921102629503      2.39653643029767      0.02393719393132
  H   -3.17443279004378      3.30015347500514      0.30165918656085
  H   -4.44270289632892      2.20710404415796      0.37102267357941
  C   -3.20085967719042      0.06836906854615     -0.00572217572525
  C   -2.70011648267400     -1.22805695467272     -0.03576530742700
  N   -3.63844552684830     -2.24295799779070     -0.01383009714856
  H   -3.34319576284220     -3.15732139952294     -0.31216900087742
  H   -4.55914116770738     -2.00418291507275     -0.33686766192071
  H   -4.28568765946958      0.09965360215199     -0.02434731098985
