28
Coordinates from ORCA-job ./opt_b97-3c_parallel
  N   -1.70467138755414     -3.17810893025680     -0.16400939501810
  C   -1.66562328660057     -2.01665663753962     -0.08707540110925
  C   -1.65087461883155     -0.60898596394577     -0.00631370655035
  C   -0.40118378799569      0.04709672048126      0.01286937556156
  C   -0.12622081104045      1.51719042127051      0.01081384625579
  C   1.28919524247382      1.23024346661798     -0.00264411648995
  C   0.97573746978080     -0.20993447664731     -0.00108128010312
  C   1.92287081823232     -1.28931444167292      0.04535904892576
  N   1.47048781910899     -2.55065666222369      0.14652215183785
  H   0.49747332424150     -2.79721980461394      0.10730998195461
  H   2.15968811394499     -3.28244103043491      0.14000162806905
  N   3.24374167266587     -1.18414826332384      0.01481333017394
  C   3.98974447108143     -0.06014535572439     -0.04211405546382
  C   3.71872440729324      1.28929427069080     -0.05021365880952
  C   2.45237351942242      1.91962772563912     -0.02488734874197
  H   2.41855957873888      3.00298134156755     -0.02864340843423
  H   4.58812344068633      1.93295317369595     -0.08651653470635
  H   5.04929549372925     -0.29993155687267     -0.07899392546224
  C   -0.93468347226686      2.59345402958970      0.01756585421443
  C   -2.35413735256911      2.51533528332001      0.04172088867219
  C   -3.17101045263592      1.42357634824426      0.05349100768049
  C   -2.91122435057561      0.01807952209433      0.02902217880862
  N   -4.04018852643361     -0.76909948073611      0.09815575361494
  H   -4.89670269494462     -0.36292827186240     -0.23363252406871
  H   -3.94910160598370     -1.74794899001906     -0.11714498610279
  H   -4.22919035607764      1.65776247871559      0.09656940802169
  H   -2.86902881938501      3.46817442829702      0.05796496082272
  H   -0.48962216410536      3.58107387394934      0.01292761394678
