29
Coordinates from ORCA-job ./opt_b97-3c_parallel
  N   5.62960397301971      0.13995690844844     -0.01244573219048
  C   4.46733754665857      0.07743305827706     -0.00966187477997
  C   3.05315911428307      0.08364172298292     -0.00721256065948
  C   2.45064180426350     -1.20650954465983     -0.01504587285297
  C   1.11754975212143     -1.55536465860142     -0.01032881406480
  C   0.75224404341503     -2.92351142989885     -0.01768980908642
  N   0.38455588277786     -4.02596962965135     -0.02223501977745
  C   0.08474714033740     -0.59816539815508      0.00237670805973
  C   0.20667161888435      0.88365267817751      0.00831895573170
  N   1.15017422860327      1.74986792858844      0.00783230645676
  C   2.47769789163850      1.37560798441316      0.00429853218484
  N   3.27811533409505      2.46033538845925      0.01749026196673
  H   2.83923353145114      3.36159273179456     -0.00331885593408
  H   4.27949925112068      2.39107924816279     -0.00901064177946
  C   -1.25477612353798      0.98516561278388      0.01487504198542
  C   -1.30193953322151     -0.48285686414483      0.00668845039315
  C   -2.44024978075885     -1.31987147517726      0.02426200156898
  C   -3.72342600841197     -0.88956600985270      0.03334080991743
  C   -4.27501540263875      0.46644302647990      0.01251251632894
  N   -5.64396342114940      0.47055072269247      0.02875824112669
  H   -6.15843319056913     -0.37450332478393     -0.13541523379382
  H   -6.14690516075192      1.33106542786773     -0.09039382562272
  C   -3.61436416225085      1.67462088837754      0.00770941267676
  C   -2.21616232450790      1.92969620298632      0.01516765441112
  H   -1.90955538897019      2.96880904587812      0.01592912886146
  H   -4.24773021413183      2.55429506524607     -0.00440532324151
  H   -4.47715293014604     -1.66780100004565      0.06257709577577
  H   -2.27494064731139     -2.39052450602663      0.03480465904992
  H   3.15683001798825     -2.02395872111869     -0.02609681371224
