25
Coordinates from ORCA-job ./opt_b97-3c_parallel
  N   -0.34212214768750     -3.97957312943777      0.06295453156451
  C   -0.74642930533820     -2.89055806134762      0.07251249464192
  C   -1.19736840694258     -1.54719089459149      0.07657993140882
  C   -0.22731878319316     -0.52955101421216      0.09581185323390
  C   -0.43573521983051      0.93592727944846      0.06113368077946
  C   -1.53190619633133      1.71342568322592      0.05024080275406
  C   -2.88273531024306      1.22607145514009      0.04348860123306
  N   -3.84884695768084      2.19759118014067      0.07400245940071
  H   -4.79574873909781      1.93772490796518     -0.13746238372844
  H   -3.60044703601101      3.12928160503267     -0.20534848024417
  C   -3.28474662332754     -0.10452207811988      0.04794851549666
  C   -2.56490253241678     -1.30536172087683      0.06144294379653
  H   -3.18374078300094     -2.19268961868022      0.04863874150104
  H   -4.36004040636492     -0.24513622038296      0.03780855662926
  H   -1.39678170829573      2.78948287432813      0.04542899365441
  C   1.01578298962542      1.11348904387015      0.05049224755749
  C   1.16052605495568     -0.35855606682878      0.09815965923826
  C   2.33351387504776     -1.07361472154386     -0.20876504276523
  N   3.54009499491531     -0.57997012253402     -0.24944769660242
  C   3.88725313998462      0.70667562889326      0.11628804098217
  N   3.30138958059923      1.86190369463856      0.10159656038513
  C   1.94964309828270      2.07107796852302     -0.07908761812879
  H   1.67011387015392      3.10660766372680     -0.23675392892401
  H   4.92741659683995      0.74663780211487      0.43176615507690
  H   2.23902290925710     -2.11917488929345     -0.49377558644078
