26
Coordinates from ORCA-job ./opt_b97-3c_parallel
  N   4.38018603026600      1.63823699576619     -0.13761545995084
  C   3.29938326745124      0.76682038672545     -0.05721336560136
  C   2.01654770515994      1.31438975936421     -0.05532699564566
  C   0.86392652589098      0.56300121228262     -0.03466373793109
  C   0.69392431992762     -0.94602214024494     -0.00721843116255
  N   1.49719366408529     -1.95863076958940     -0.00096145138320
  C   2.84322672018810     -1.75778680125091     -0.02369976700463
  C   3.61518509346479     -0.61886126584227     -0.04996277344644
  H   4.68010425030348     -0.82947013635872     -0.07381252695659
  H   3.40375881296894     -2.68620454627110     -0.01855574624118
  C   -0.73161034307861     -0.76669130514705      0.00800928609536
  C   -0.53301667479419      0.70227649138267     -0.01895346790940
  C   -1.51503699457936      1.67876294377055     -0.01263639965610
  C   -2.86585838897335      1.42924459768180      0.01304763240295
  C   -3.55003854031478      0.15433443029654      0.03037885672662
  N   -4.90223070142724      0.26085809680236      0.05396112038132
  H   -5.36917990159889      1.13591143407378     -0.08946687730051
  H   -5.42873244737057     -0.59181468405416     -0.01809906200104
  N   -3.14601380494036     -1.11369745660857      0.04361391525652
  C   -1.85866997937073     -1.52481292018192      0.04126390150107
  H   -1.74367421698995     -2.60393355463355      0.06308177216319
  H   -3.51714292332141      2.29431489622005      0.02503596086571
  H   -1.21124667709143      2.72070053008885     -0.02783755804929
  H   1.93309002882108      2.39736023108611     -0.07352303984432
  H   4.20336707378432      2.57873854641918      0.17222143842978
  H   5.25157808953912      1.28505838982227      0.22005525656165
