32
Coordinates from ORCA-job ./opt_b97-3c_parallel
  N   4.37003080343871      3.18058794745643     -0.02580384447902
  C   3.62218197483987      2.28759258650923      0.00145293875614
  C   2.64757048710582      1.26632359065294      0.02085796971135
  C   1.26128166116638      1.71982586998548     -0.03056856657436
  N   1.04328819707227      3.06798755413598     -0.02580890344046
  H   0.15737717135728      3.39683177266369     -0.36259119150581
  H   1.82273706737120      3.67307894832915     -0.22652382501637
  C   0.22743630707385      0.82964014147048     -0.03507610282173
  C   0.18490435375054     -0.65709064245351     -0.02627318999527
  C   -1.20832227667626     -0.65365614946793     -0.04950486745225
  N   -2.14467492936405     -1.57604166201799     -0.07725137411619
  C   -3.43931134902421     -1.21990928656339     -0.10142633891417
  N   -4.29913967083403     -2.26839885419523     -0.25051009445453
  H   -5.26569423870383     -2.10267532994469     -0.04010055897479
  H   -3.93398642466784     -3.18957035388914     -0.09343494073095
  N   -4.06752338518450     -0.03555614895419     -0.00793739579290
  C   -3.60815261716838      1.19861665104457      0.04183408557119
  N   -4.58241553555079      2.15538835331232      0.11111149737152
  H   -5.51115446917749      1.82472640020312      0.30621310026953
  H   -4.35444991227366      3.07503152558584      0.44137821968927
  C   -2.26092846988603      1.69706824053947      0.00083423883760
  C   -1.20429442516335      0.86108216926899     -0.04831369182019
  H   -2.12852780845484      2.77287151955317      0.03559649575730
  C   1.16403303648219     -1.64531668266596      0.02253233033410
  N   0.76910619423436     -2.92708860749548      0.02877660930704
  H   1.43729096462789     -3.67838033743253      0.05023858608355
  H   -0.21406119155301     -3.13883459964622     -0.01613888232807
  C   2.55438832272117     -1.31992562933573      0.06907858774480
  C   3.43839518579762     -2.41648588164334      0.11672243068400
  N   4.09915333456756     -3.37561328114649      0.15420170037999
  C   3.12736696002383     -0.03370003205329      0.06191492728167
  H   4.20920235745194     -0.07327324930567      0.08843012893789
