30
Coordinates from ORCA-job ./opt_b97-3c_parallel
  N   -0.70094113530364     -3.67914135292785     -0.16764166556327
  C   -0.93679130974306     -2.53959876349047     -0.08677062952399
  C   -1.24013182424860     -1.17084235733016     -0.00180121896439
  C   -0.17536073428235     -0.23574753519724      0.01387452716295
  C   -0.26281733295295      1.23957477216509      0.01739689140083
  C   1.19824552518562      1.31021885882097      0.00220646087200
  C   1.22422624124623     -0.15427568215768      0.00077757028257
  C   2.40808899299751     -0.98585043564873      0.03809964150525
  N   2.24309438237430     -2.31935702216574      0.13387228078077
  H   1.34877067876831     -2.77301596798774      0.07437008197935
  H   3.07508234622113     -2.88295380155738      0.11469013554960
  N   3.65573609529782     -0.57304076239001      0.00807704028596
  C   4.12535813885575      0.70393765114003     -0.04628980200770
  C   3.54539209251366      1.94186438339949     -0.05093298198846
  C   2.15473144906474      2.25581523693388     -0.02000946556791
  H   1.86526267359119      3.30023386320707     -0.01988643958811
  H   4.23428901318447      2.77627903788374     -0.08756782711750
  H   5.21102145755591      0.71432696204498     -0.08343941649527
  C   -1.27811922284324      2.11055674778824      0.04273431003732
  C   -2.66807938288954      1.73606452565762      0.06315661971397
  N   -3.53538939209772      2.80130828237524      0.14941533509463
  H   -3.20422872446874      3.69177328209451     -0.17650614008361
  H   -4.50521561810045      2.63285422918284     -0.05257872328324
  C   -3.19201926336266      0.46401568199940      0.06246965469768
  C   -2.60582520775033     -0.83133300755520      0.04157584950979
  N   -3.52116608615589     -1.85892031058987      0.11200515184386
  H   -3.19857813675236     -2.78741717401521     -0.10458489279028
  H   -4.44734926721436     -1.66710596098227     -0.22525958052935
  H   -4.27593118435773      0.43554035655961      0.11247968420231
  H   -1.05115505873296      3.17043591464281      0.06277256168426
