24
Coordinates from ORCA-job ./opt_b97-3c_parallel
  N   -1.28267181493060     -2.93103918787320     -0.00235875684492
  C   -1.51408305471072     -1.61003824636465     -0.00168085210059
  N   -2.81200233775177     -1.24516220609041     -0.00125906479261
  C   -3.28021686155385      0.00131592935358     -0.00073956855010
  N   -2.81111494442601      1.24745666498705     -0.00071738778800
  C   -1.51293599812178      1.61141170599275     -0.00091758940973
  N   -1.28059566977737      2.93224868223396     -0.00098534138593
  H   -0.33924991974456      3.28658642698359     -0.00156599792261
  H   -2.06310731303754      3.56177747797606     -0.00134655345537
  C   -0.42729591582970      0.73186754222685     -0.00102628398440
  C   -0.42781653997804     -0.73126477489878     -0.00143145572374
  C   0.97465956138608     -0.77737483800501     -0.00220034967994
  N   1.90373936387661     -1.69041430919136     -0.00315512620047
  C   3.19130011066173     -1.28595034823487     -0.00391594977427
  C   3.74335356216229     -0.00120225134454     -0.00396953038143
  C   3.19223160987426      1.28394543454049     -0.00329428429411
  N   1.90495595822834      1.68934191056557     -0.00228511088272
  C   0.97521785924322      0.77696743978408     -0.00176725115905
  H   3.90501544161661      2.10054411074625     -0.00365849321038
  H   4.82793207383762     -0.00159559292943     -0.00474803354013
  H   3.90349308509220     -2.10305831150353     -0.00465371532524
  H   -4.36784808761837      0.00170265539766     -0.00031959181254
  H   -0.34157142428919     -3.28603820046103     -0.00307240203759
  H   -2.06562610800947     -3.56002105079106     -0.00295471424415
