27
Coordinates from ORCA-job ./opt_b97-3c_parallel
  N   4.41202882797861      1.86219501769080     -0.00014603327398
  C   3.48833370531065      1.14853371019486     -0.00021434066898
  C   2.36615167685285      0.30488807060910      0.00008618090768
  C   1.10831012379282      0.97364892237304      0.00035762241861
  C   -0.12317626960621      0.30887668811714      0.00074838571219
  C   -0.43330489779419     -1.12765794136241      0.00127298533945
  C   0.37458018296345     -2.23356317062250      0.00113388957966
  C   1.75826748424900     -2.20932640333653      0.00053319512303
  C   2.64132933266843     -1.11007753834708      0.00004695569206
  N   3.95602012846803     -1.43657354855230     -0.00041188195721
  H   4.23873401740596     -2.39752763308972     -0.00046315513940
  H   4.67844653538259     -0.73890346061297     -0.00083595009903
  H   2.24855209514882     -3.17486524899086      0.00045858469442
  H   -0.10634332642390     -3.20411221982884      0.00150244715607
  C   -1.82349180184289     -0.82893044198245      0.00162722238939
  N   -2.92609350134634     -1.51191524175015      0.00218406497711
  C   -4.12811106741878     -0.88195096748875      0.00231095405702
  N   -4.49942427094897      0.38909089792087      0.00185755289582
  C   -3.76367659084327      1.50288610122716      0.00114533060706
  C   -2.37661823685578      1.70002908674160      0.00072351702095
  C   -1.48638028552604      0.65717233345242      0.00103328418702
  H   -2.04232475954933      2.73374266345627      0.00003914925704
  H   -4.36247667933852      2.40992097532194      0.00083830791351
  H   -4.96122053183636     -1.57615932396230      0.00286544193218
  N   1.10133434811745      2.32118611354495     -0.00012260641684
  H   0.23402336830326      2.82080379779879      0.00180247238601
  H   1.95254577598869      2.85524981457790      0.00079967760915
