29
Coordinates from ORCA-job ./opt_b97-3c_parallel
  N   5.85130786527065      0.48122460579241      0.02663442710150
  C   4.68888666116556      0.46703296685553     -0.00348981028107
  C   3.27167059799682      0.39387799440492     -0.02412601800102
  C   2.63650273651358      1.64122143651549     -0.07504927611485
  C   1.28308746126727      1.98125950114504     -0.07997894725855
  C   0.26264943040779      1.07621638433679     -0.04115912528959
  C   0.31120589358457     -0.42670892770230      0.00319596226138
  C   1.37990646928575     -1.28276335837459      0.04109234699441
  C   2.73897934033226     -0.93473850676992      0.02880426429411
  N   3.63809908060930     -1.98005722033344      0.01345426889653
  H   4.59676116722209     -1.77932960750764      0.24468632840513
  H   3.31267347667546     -2.85880213083095      0.37445963647189
  H   1.17381666344724     -2.34782165018991      0.09214927903375
  C   -1.10118518140656     -0.45630832209866      0.01362020879427
  C   -1.15702440032049      1.01409077957628     -0.02690771625681
  C   -2.24222012844473      1.85154021003002     -0.03397022988396
  N   -3.52519620200630      1.50029015203492      0.01907531376659
  C   -3.98400673527244      0.22458554890674      0.06905960783769
  N   -5.32827659932410      0.19939303072950      0.20342024517654
  H   -5.80819464695537     -0.68018055535754      0.23005603787098
  H   -5.82856108245941      1.06762037904904      0.23440427435949
  N   -3.46681508576281     -1.01587065764464     -0.01245526709254
  C   -2.17219368633717     -1.34546457760572     -0.04236730209665
  N   -1.94043311544492     -2.68856301085342     -0.09903988293371
  H   -1.05744124157986     -3.00189379564446     -0.45972171259020
  H   -2.73986322826600     -3.25058355296742     -0.33774274497084
  H   -2.07369166919864      2.92443841055377     -0.08036884230150
  H   1.04435637297564      3.03730963660160     -0.11501704383151
  H   3.32207804672513      2.47760601434842     -0.10506376646157
