28
Coordinates from ORCA-job ./opt_b97-3c_parallel
  N   5.32834854644311      1.92141575745930     -0.00965845389707
  C   4.40490783634324      1.21509268525755     -0.00753450770786
  C   3.25429908720624      0.38684723223780     -0.00511149132683
  C   1.97900787520248      1.09343380830005     -0.01487154113540
  C   0.79730867086924      0.47104394243445     -0.01216028145801
  C   0.38571126207823     -0.94861005294219     -0.00050160453862
  C   1.19389302881553     -2.09523382305252      0.00885988311081
  C   2.56194710214201     -2.07755154716541      0.01153273984701
  C   3.46344583867702     -0.97027838503915      0.00585664583895
  H   4.50710494779630     -1.25947284419108      0.01117963080768
  H   3.05055912937112     -3.04284075649248      0.01908575681543
  H   0.70166977190224     -3.06033517121343      0.01441822815175
  C   -0.96534196004238     -0.59303902325380     -0.00617000339940
  C   -0.63275306409132      0.83428303316093     -0.01881119926252
  C   -1.35334879334258      1.96482879264615     -0.03606101323492
  C   -2.79764831958902      2.00739338568541     -0.03401351524898
  N   -3.32710320350279      3.26807645201244     -0.09385295140152
  H   -4.30794523507160      3.38663244413112      0.08761720823156
  H   -2.75330522349031      4.04470638427302      0.18068579757993
  C   -3.65723470715725      0.92245580434456     -0.02281413707140
  C   -3.42641511445607     -0.46766119837201     -0.02028890530664
  C   -2.24963129761933     -1.19117569723283     -0.00957689798756
  C   -2.31376664123699     -2.60521048366464     -0.00018735615516
  N   -2.31347537603877     -3.76745877996393      0.00829923868031
  H   -4.32957122287681     -1.06344837069476     -0.01717292745845
  H   -4.70935582272284      1.18502127038104     -0.02232042536762
  H   -0.83024917451762      2.91396475259613     -0.06008552313178
  H   2.02093059070835      2.17461010705813     -0.02497381647399
