25
Coordinates from ORCA-job ./opt_b97-3c_parallel
  N   -6.44420561357457     -0.04477412429018      0.00119810101645
  C   -5.28450797689360      0.00495690855128      0.00053448818660
  C   -3.86257509727818      0.02845796829811      0.00032192084259
  C   -3.29480346034577      1.28267218511114      0.00012480932931
  N   -1.97295418566447      1.67276596891378     -0.00000253338257
  C   -1.07577736228231      0.75788109397885      0.00005973822931
  C   -1.04785715690214     -0.73163911384351      0.00021772336620
  N   -2.01216609471601     -1.66676676204289      0.00035824995727
  C   -3.25935413094721     -1.30920420149035      0.00039961818968
  H   -3.97946109330485     -2.11952874452054      0.00051934993135
  C   0.34840995730810     -0.72278387271281      0.00010400336148
  C   0.39679403390828      0.75039166382144     -0.00004537290601
  C   1.39083215435889      1.64505980861541     -0.00021015842237
  C   2.79535231323145      1.26790012846087     -0.00028522777634
  C   3.71083902989063      2.35555247718800     -0.00044385260586
  N   4.43202311172636      3.26500791249447     -0.00022452253843
  C   3.33970738776992      0.01410391025205     -0.00022330567269
  C   2.73364774456619     -1.30242373381925     -0.00002767880421
  C   3.66840568490251     -2.37328880929019     -0.00000041501453
  N   4.44320072504074     -3.23777255836780     -0.00006307802427
  C   1.40196726198026     -1.64521337444539      0.00011539307212
  H   1.15178157142562     -2.69818436583421      0.00024344171714
  H   4.42068406182564     -0.01381761742492     -0.00033181905218
  H   1.15787909449285      2.70068804595085     -0.00029290793619
  H   -3.98257118431834      2.11833260234576      0.00007615863615
