29
Coordinates from ORCA-job ./opt_b97-3c_parallel
  N   5.48562842115792      0.03679034205955      0.02626586225224
  C   4.31983584928393      0.03844170878707     -0.00753871958866
  C   2.91370361430917     -0.00192643506251     -0.03512385477662
  C   2.24802670823372      1.30624899281734     -0.06396410224739
  N   0.97525964109912      1.62324513158298     -0.04422868583463
  C   0.00432718485755      0.71039009403970     -0.03200071578123
  C   -0.00820302991879     -0.77033166643085     -0.02453169039928
  C   0.98701727038549     -1.66894220139121     -0.02335004152738
  C   2.37657936590968     -1.30187075735282     -0.02276423398854
  N   3.22616620885452     -2.35566592376675     -0.02588384305599
  H   4.22050784435328     -2.22628175604657      0.04483499186644
  H   2.87247456978939     -3.28436896294466      0.09828894889343
  H   0.75757075746494     -2.72810984039769     -0.01862188919777
  C   -1.47209707494118     -0.73641671693265     -0.00509387751328
  C   -1.39011130929254      0.73352184594575     -0.00738427885664
  C   -2.46034403294176      1.64632712889117      0.05021954810130
  C   -3.76432063446220      1.28528412023512      0.08863411364507
  C   -4.35633895056737     -0.07118883951830      0.04114268871009
  N   -5.72559114459439     -0.02546591509274      0.07113414282691
  H   -6.18756498451315     -0.89949373910902     -0.11597136914843
  H   -6.20336570581653      0.80739801807993     -0.22155953413591
  N   -3.85154249987217     -1.26840298950097      0.00849017714688
  C   -2.51006474008757     -1.58703625182510      0.02153750243968
  H   -2.32244876933657     -2.65509059624242      0.03001980603244
  H   -4.48913090552574      2.08663099402273      0.16313398064353
  H   -2.22618682714136      2.70458488277806      0.07847554417056
  N   3.09223008101177      2.37803586266369     -0.15807645683250
  H   4.05961535340054      2.29264419981196      0.09811981675961
  H   2.65735276000029      3.26829999159921      0.00752274989605
