31
Coordinates from ORCA-job ./opt_b97-3c_parallel
  N   -2.51154387446912     -3.36093416306815      0.06018092025897
  C   -2.44985012281118     -2.19987366662129      0.05970032994059
  C   -2.36102457257235     -0.78311994681530      0.04595741647185
  C   -1.11113736312815     -0.18746715102433      0.03218017902200
  C   -0.78598497620462      1.29530557865024     -0.01184271914611
  C   0.58546670449081      0.96456830200004     -0.01289617962931
  C   0.27497930899597     -0.47226798413600      0.03115859957334
  C   1.14504075966501     -1.57782726874947      0.01928255203338
  N   0.64899229910891     -2.83598508589056      0.12023409582752
  H   1.25380406767569     -3.61626433352898     -0.05652105208430
  H   -0.33641916550333     -3.01955006852236      0.04462614518943
  C   2.53897604052369     -1.44881097336483     -0.05748466625333
  C   3.36079146319437     -0.31650718534521     -0.09156730656330
  N   4.71392072070308     -0.58492314696380     -0.21289265641197
  H   5.01918131943413     -1.49952636007099      0.07025221086307
  H   5.34455477350669      0.14333921000389      0.07235338374705
  C   3.04200323118397      1.05321985832863     -0.05145159734474
  C   1.79474142826986      1.66577719920315     -0.01171460906289
  N   1.74189503859734      3.04359725143105     -0.02604103531923
  H   2.58238919388879      3.52174750068301      0.25004885082869
  H   0.91553384837686      3.45122194236429      0.37457375074750
  H   3.89347348636468      1.72431623934305     -0.08099225520767
  H   3.07576549050437     -2.39128104621904     -0.08004001708244
  C   -1.60380326353228      2.38943078822786     -0.08403128606698
  C   -3.00352785098528      2.36251551681458     -0.08277985179602
  C   -3.85487380409438      1.26375682642658     -0.02367375916751
  C   -3.59924635613628     -0.09896598486451      0.03109862079676
  H   -4.47107908541080     -0.73846866769029      0.05605439571176
  H   -4.91045080041323      1.51147213364871     -0.03127586725011
  H   -3.49174040963344      3.32741564402492     -0.13936481415209
  H   -1.14836609928961      3.37061308922500     -0.16983115837397
