32
Coordinates from ORCA-job ./opt_b97-3c_parallel
  N   -0.27876025085753     -4.45839855861495     -0.18903506674567
  C   -0.73187899168770     -3.38874943164239     -0.13183246841227
  C   -1.26792233788421     -2.08074352391395     -0.06511251693311
  C   -0.41942478739693     -0.98262013343941     -0.00868309345058
  C   -0.80268072883001      0.49250311567122     -0.00480713517302
  C   0.55864913496810      0.83001855817493     -0.00025440314863
  C   0.92522905791199     -0.61536713697766      0.00826767790957
  C   2.20024908444522     -1.23336114172083      0.10680879504776
  N   2.29088768387934     -2.56968178434963      0.22508328695639
  H   3.21365569939264     -2.96583274520824      0.23416694797592
  H   1.50184716645263     -3.18816077661272      0.14776067678940
  N   3.37392009472600     -0.61259599341253      0.10918281435433
  C   3.60892032213296      0.70762374555710      0.03558871790800
  N   4.95407667738030      0.95751239171188      0.06584117499367
  H   5.54776710601362      0.15925720865589     -0.07195937937633
  H   5.30605321111757      1.84685600317577     -0.23653862913558
  C   2.78864110337929      1.84363232677944     -0.03122871619336
  C   1.39431472302566      1.95668325806322     -0.05224256789747
  N   0.87607673703791      3.20542685443529     -0.17641203754042
  H   -0.10272932263988      3.37891326958356     -0.03329187417248
  H   1.47900014781953      3.99231756319928     -0.02135845009328
  H   3.32572457337850      2.78402816537320     -0.07323802852929
  C   -2.06175320615359      1.06498646155336      0.04336266377176
  C   -2.17195925817418      2.46891970481759      0.12881755092141
  N   -2.29769845289031      3.62391703957006      0.20407929132129
  C   -3.29902452871118      0.32993048410047      0.03881307612864
  N   -3.50921637580335     -0.97917546087897     -0.04810468999077
  C   -2.67697930318342     -1.99842870297231     -0.09512075540479
  H   -3.18026882764809     -2.95730898865778     -0.16846816496445
  N   -4.45516690630802      1.05074062249008      0.17053434896013
  H   -4.46856666259490      2.03632538681400     -0.02281462040205
  H   -5.29603170219796      0.53780811337505     -0.02630039497470
