23
Coordinates from ORCA-job ./opt_b97-3c_parallel
  C   3.68122487398229     -0.00867202262791      0.00060389475843
  C   3.13665832794361      1.26593181779492      0.00038985111536
  C   1.78002461470427      1.64297033323271      0.00055190291716
  C   0.73403128062804      0.77126072232144      0.00094142002670
  C   0.70415696517810     -0.72536958485048      0.00130838348827
  C   1.74579857035086     -1.62572120257870      0.00135805083375
  C   3.09407172645702     -1.28341554454895      0.00103095180600
  H   3.79195482924693     -2.11091430168279      0.00111795536232
  H   1.50454106325944     -2.68343743273219      0.00168081268378
  C   -0.71196259793590     -0.70447069876636      0.00155237374876
  C   -0.69776933182796      0.78984502106925      0.00122101931047
  C   -1.74416110174749      1.65305525023758      0.00117964788140
  C   -3.09158492166812      1.22733956309568      0.00152405469658
  C   -3.60538455347608     -0.06149534545570      0.00189446176724
  N   -3.07900345465537     -1.30346124927976      0.00196298483196
  C   -1.77622692462746     -1.58074688281572      0.00177994597843
  H   -1.55025291083804     -2.64562507347648      0.00183290419684
  H   -4.69246340045862     -0.09377656882819      0.00216608714780
  H   -3.84050786622836      2.00959152214026      0.00152118806545
  H   -1.55418322298290      2.72106058567699      0.00089396569833
  H   1.56300854135351      2.70598267652956      0.00034606626454
  H   3.85096812343343      2.07933907763783      0.00006033005229
  H   4.76581145940881     -0.02650257519299      0.00041084526817
