26
Coordinates from ORCA-job ./opt_b97-3c_parallel
  N   5.36669816411872      0.41068449075885     -0.01751065760012
  C   4.20488797173800      0.42033689093943      0.00687304811347
  C   2.78565888443933      0.36959574802564      0.02497581429717
  C   2.18550035522488      1.61244390944874      0.01383529683855
  N   0.87501786627160      2.01703632681868      0.01635064962466
  C   -0.02925747695097      1.10632084411747      0.01228271360444
  C   -0.01396082986339     -0.40872533602126      0.00595986946397
  N   0.94710929495415     -1.33376545930818      0.01143504592202
  C   2.21513569577056     -0.99204915418604      0.03458516849682
  N   3.11203208420839     -2.01509938173833      0.11287180332952
  H   4.08075721674024     -1.86606337572464     -0.10572102894206
  H   2.74490153666413     -2.93563310684934     -0.04731889361557
  C   -1.39351557314247     -0.40149616912623     -0.00503119996308
  C   -1.48523193854760      1.06427932593762      0.00301985252159
  C   -2.53053920414875      1.92198547970022      0.00271883682937
  N   -3.85893901672176      1.59550302283679     -0.00885519705870
  C   -4.32574476650765      0.36878746589570     -0.01303227771774
  C   -3.78191584493498     -0.94676848967022     -0.00615420079608
  C   -2.45754615813775     -1.34959773565099     -0.00416611721855
  N   -2.08847009412296     -2.64375957998344     -0.00256235153329
  H   -1.11163464389045     -2.88351724105302      0.01562235760547
  H   -2.76527250379395     -3.38426758223813      0.01806907424399
  H   -4.52768967315423     -1.73362336566469     -0.00662495921603
  H   -5.41500428729142      0.34897536768558     -0.02293879512374
  H   -2.32821176334245      2.98673355129126      0.01207146794081
  H   2.87677699572079      2.44613794365847      0.00071048945305
