29
Coordinates from ORCA-job ./opt_b97-3c_parallel
  N   -5.32008586313011     -1.30630408257868     -0.01669936470481
  C   -4.17066620861168     -1.12503147706056     -0.01961083844267
  C   -2.78451425095521     -0.83988849198114     -0.02170868190169
  C   -1.94826493750005     -2.00452124135379     -0.07335969041809
  C   -0.59111159446625     -2.13857320969066     -0.07413859488577
  C   0.31105096025541     -1.06969707970582     -0.02774575430653
  C   0.01579011831354      0.37454892914410     -0.00590065493318
  C   1.45386914659359      0.66284996024748     -0.00816024852388
  C   1.67951139470960     -0.78278030761790     -0.02142192493695
  C   2.93033775379442     -1.45434321024551      0.00356329846616
  N   2.91809345948362     -2.81246780949657      0.00569821001383
  H   2.07652608503865     -3.28814283639428      0.27403768358239
  H   3.77208985099706     -3.30769591540576      0.19223875533831
  C   4.12473179994830     -0.75277209897136     -0.01262776841286
  C   4.36894622219974      0.64846305474546     -0.05145714303563
  N   3.63677881884755      1.73325247383754     -0.05200514067381
  C   2.26724053269727      1.73997760987543     -0.02127507632592
  H   1.82818616999243      2.73011865692658     -0.01273044734445
  H   5.43496151017165      0.87074927002825     -0.07660199998432
  H   5.02843654968118     -1.35214966237096      0.00235993965796
  C   -1.13116935933945      1.09428606226123      0.01810399074591
  C   -1.02539537724707      2.50839356001926      0.03980060412887
  N   -0.99192775481610      3.66919403160474      0.05655644892323
  C   -2.47937399775320      0.52797544882051      0.02420662239085
  N   -3.48103329700017      1.43345652327540      0.09043625329247
  H   -4.44096082109703      1.13873522199990      0.05321416276816
  H   -3.29366564703925      2.41884893335401      0.05479946275606
  H   -0.20729757862078     -3.14997505313313     -0.13385763000078
  H   -2.51282811624767     -2.92557882563376     -0.11904431253288
