30
Coordinates from ORCA-job ./opt_b97-3c_parallel
  N   -1.40453764128655     -4.09058748230285     -0.09245764154338
  C   -1.36188817836157     -2.92891185064553     -0.07107804639060
  C   -1.40952095979516     -1.51768804653936     -0.04153110252979
  C   -0.26539265243344     -0.79645034012298     -0.03846769518409
  C   1.18359051530151     -1.08839882339394     -0.03946496821604
  C   1.38778794056655      0.35285790937527      0.00627581614019
  C   2.66202933780425      1.01721713796191      0.05267544678472
  N   2.69029269951201      2.36318712383782      0.12603848902135
  H   3.56817910031049      2.84916510540651      0.12116077093868
  H   1.85966961631440      2.92749005586973      0.07668106237860
  C   3.83586350240910      0.28647351120715      0.03756753772758
  C   4.08406303971801     -1.12041351999553     -0.02113148230019
  N   3.35048564238311     -2.19469198273957     -0.06621324040905
  C   1.97406732149052     -2.17564514981879     -0.06571488565291
  H   1.51454375876481     -3.15572621295880     -0.09614301626242
  H   5.15114452906146     -1.33922719741090     -0.02998937890635
  H   4.74612790992147      0.87600754781274      0.07266501396429
  C   0.00993579954901      0.62756524812558     -0.00412547561472
  C   -0.91393529495423      1.70700987320588     -0.01694033785158
  C   -0.43068895831361      3.02089753432642     -0.02227653520848
  N   -0.02342316628408      4.11491575483892     -0.02198312365144
  C   -2.30758075686883      1.52801189467860     -0.06917340380499
  N   -3.04553789143716      0.39530103843471      0.00940438944503
  C   -2.73321812553861     -0.86818694422627      0.03835653901317
  N   -3.76972485403814     -1.71937881794605      0.16388217868843
  H   -4.69632248102767     -1.33489506955386      0.19870723621315
  H   -3.64877935825389     -2.71614647665052      0.17149885412895
  N   -3.10449569988996      2.62118331698293     -0.22351075161618
  H   -2.72556199016702      3.54538157325902     -0.11531543315208
  H   -4.07847796445675      2.49189572448163     -0.02026521514985
