30
Coordinates from ORCA-job ./opt_b97-3c_parallel
  N   -5.84334261435444     -1.41569764370786      0.00392556308591
  C   -4.71927302890822     -1.11748472789871     -0.01458022244486
  C   -3.36996904706296     -0.68497009574650     -0.02677189743467
  C   -2.43328630679052     -1.75614681228920     -0.07468973668067
  N   -1.11171722322187     -1.78507625913729     -0.07606382901036
  C   -0.41328228264516     -0.66593080299975     -0.04398455639458
  C   -0.75414170324682      0.81367507764932     -0.00866088768886
  C   -1.95821252059591      1.42147674128823      0.03316375162077
  C   -3.20228056476229      0.72404911705372      0.02273456244716
  N   -4.31495861218942      1.51019657157188      0.02550245419797
  H   -4.22955898129730      2.47508586242030      0.28422483232273
  H   -5.22058702267547      1.09529442782008      0.16495447922091
  H   -2.01670308153039      2.50390392092031      0.08499813910436
  C   0.64946799794015      1.09702063291580      0.00704297467522
  C   0.93908055498263     -0.34826318058500     -0.01979813883609
  C   2.14155295412934     -1.06214817394608     -0.00839883444042
  N   2.08191345085041     -2.39835064921819     -0.04309185395767
  H   2.91647774985951     -2.95981316156850     -0.03071631685163
  H   1.18232028234078     -2.85134434645961     -0.06870592551794
  C   3.38683547326517     -0.37868533617214      0.04404458007761
  C   4.54005595829008     -1.18946361972553      0.06177514154966
  N   5.44765521275959     -1.91914859025745      0.07156860008762
  C   3.60467136596919      1.02728577587028      0.10265914721333
  N   2.86756983058069      2.10777718413135      0.08139091329803
  C   1.50506408330120      2.17341105048949      0.00787054632476
  N   1.04637336786505      3.45744892511692     -0.02142905909793
  H   1.75253931105249      4.15214863235032     -0.19740013178763
  H   0.13901681789314      3.63918242273382     -0.41019843028641
  H   4.66436345232423      1.26190385486728      0.17342789538186
  H   -2.89745321442236     -2.73486436558740     -0.10588477587828
