32
Coordinates from ORCA-job ./opt_b97-3c_parallel
  N   -4.35950641512508     -2.57747105023557      0.10061833873100
  C   -3.57925929014081     -1.70978925708985      0.07249269573748
  C   -2.62977075144376     -0.67624588061746      0.03741738836976
  C   -1.26694455957863     -1.10961700936169      0.04563291014635
  N   -1.02707513603001     -2.43333843876693      0.07947540686202
  H   -0.09338251611052     -2.80185220893154      0.07202524379850
  H   -1.78335194298951     -3.09472429798794      0.06114238940100
  C   -0.21110075017529     -0.19342533766520      0.02735253038027
  C   -0.28268875830122      1.28146505819705      0.04887120033286
  C   1.10759837715122      1.38190650591356      0.04445027186549
  N   1.95811174969718      2.37271716654646      0.03620513716936
  C   3.27845736315956      2.12805873846745      0.02179506724612
  C   4.01073878882035      0.94950853873731      0.01680808641544
  C   3.66049733576567     -0.41088909534825      0.01631387669730
  N   4.69354347495320     -1.31598199667949      0.07111628796008
  H   4.51031567612399     -2.27291697986653     -0.17805017085530
  H   5.60406665910415     -0.98978584721649     -0.19777745797180
  C   2.33014964835796     -0.94020261761906      0.01445428086848
  C   2.19136128313459     -2.34438441967846     -0.02602288057688
  N   2.08617542319270     -3.50281470204125     -0.06785259777671
  C   1.19635536579585     -0.15064089627734      0.02876793025798
  H   5.08194738536721      1.12175644667704      0.02134156552583
  H   3.88065006909989      3.03005057864860      0.01404205970314
  C   -1.34308178996900      2.18540079669597      0.03205323015070
  N   -1.04867581880198      3.50125927712222      0.09652985750994
  H   -0.08704919041037      3.79453427494248      0.03535298744033
  H   -1.78581233618720      4.16452911342288     -0.05841855884503
  N   -2.63995656489592      1.88162154023652     -0.03642773488915
  C   -3.17660733644454      0.66125336180093     -0.04732558980302
  N   -4.52410578854137      0.72247160117018     -0.15620444127695
  H   -4.94047111873912      1.63457281472117     -0.13104922542723
  H   -5.11045923353918     -0.09109947811674     -0.11524240864734
