27
Coordinates from ORCA-job ./opt_b97-3c_parallel
  N   -5.13961409759380     -0.06264097655357     -0.04255112494979
  C   -3.77063201818994     -0.09178044008993     -0.02497264497768
  N   -3.25183733220667     -1.28149867558777      0.03219986414153
  C   -1.90411497779732     -1.57901747633717      0.01663033233270
  C   -0.87977264162971     -0.71201118198952      0.01358731660700
  C   -0.81274243186041      0.75964326004680     -0.01975790046542
  C   0.58021818939223      0.77293842564601     -0.01084688542850
  N   1.54396126270933      1.69376649877894     -0.00621616253986
  C   2.80660766218737      1.30539579677111     -0.00821751875117
  N   3.71858868219601      2.33840946387786     -0.06755075785971
  H   4.62673289994965      2.18279252775597      0.33335074260524
  H   3.31877274728492      3.23730220221544      0.14339375991186
  C   3.38168178328568     -0.00618041541512     -0.01069895050610
  C   2.81380734309684     -1.26175717159048      0.02089855623007
  N   3.61922615668594     -2.36587714009390      0.06525612894876
  H   4.58035070774003     -2.28473529169958     -0.21189727115404
  H   3.16442925672833     -3.23498419170873     -0.15142267583168
  N   1.47830894445077     -1.64445569401797      0.04472778790874
  C   0.58438051127803     -0.72683133808035      0.02500613171279
  H   4.46580468882978     -0.01005733277342     -0.04900594199940
  C   -1.89891744305498      1.65365965148944     -0.09075362199363
  C   -3.19746647609168      1.27351083820574     -0.11072535818017
  H   -3.93471329642862      2.06196581516798     -0.19993447927164
  H   -1.68123737071220      2.71448104768202     -0.14693549703763
  H   -1.69282035692005     -2.64146616064060      0.03212899705005
  H   -5.59019205577064     -0.93755418262095      0.16712924434983
  H   -5.62598796135893      0.77276565316176      0.22768392034783
