32
Coordinates from ORCA-job ./opt_b97-3c_parallel
  N   1.78595886279149      3.76145031906719     -0.09452293972467
  C   1.81214510806251      2.59757373926263     -0.03139831333417
  C   1.83144474304990      1.19289257896298      0.02571917606727
  C   0.63361452954303      0.48893227229496      0.05876249523534
  C   0.45623333930149     -1.03551185391198      0.07152674191056
  N   1.26090052844769     -2.05821463733174      0.03782899466137
  C   2.60327571610580     -1.85898005570236     -0.00241144446233
  N   3.30469468251006     -3.02967686838549     -0.10177377400351
  H   2.81436647940310     -3.86962922915375      0.14583553554617
  H   4.28424880447429     -2.98474205646533      0.11174882102842
  N   3.36821261888796     -0.77448755021811      0.00908003500837
  C   3.09620674735173      0.52559183995948      0.02750950560344
  N   4.21840701701319      1.31037699616253      0.09272462257825
  H   5.07406381848493      0.84486488320204     -0.15184916699478
  H   4.15463240343975      2.28331521757858     -0.15124197888620
  C   -0.93038738011935     -0.86354070637190      0.09655176171211
  C   -0.75000195635338      0.61817750586283      0.07292646940518
  C   -1.76263006687380      1.59456208660037      0.06833444989830
  N   -1.43806414177123      2.91071177088764      0.14643716712505
  H   -0.48551695343929      3.21153818664860      0.03446975992117
  H   -2.13906258589058      3.59948024199188     -0.05581862527443
  C   -3.11216366762850      1.24158631172052      0.01959765569868
  C   -3.74612382539081     -0.02740171735368     -0.03965908559546
  N   -5.11091671102081      0.03582970576910     -0.14805519455339
  H   -5.59213207776657     -0.83104680474107      0.01512267549567
  H   -5.59142910614114      0.87610234666906      0.11589620040427
  N   -3.32657241695368     -1.29616737401631     -0.03842856810068
  C   -2.04560671380170     -1.68596006440007      0.03116649480292
  N   -1.85808989695169     -3.03175546421326      0.07304502964220
  H   -0.92609540142830     -3.38359277424182     -0.07174429499287
  H   -2.63286101822519     -3.60287858926429     -0.21478401766672
  H   -3.80102740071094      2.07861952013079      0.00628563664445
