25
Coordinates from ORCA-job ./opt_b97-3c_parallel
  N   5.46296740078090      0.00790263471404      0.01516791899952
  C   4.30331576043051      0.00629652112363     -0.00250338418956
  C   2.87564523234126      0.00430953182880     -0.02416530059943
  C   2.30291959293021      1.28498627381266     -0.03129688840201
  C   0.94529409641560      1.64300198012295     -0.05015679070746
  C   0.62176414051937      3.02844793875179     -0.04693725747441
  N   0.32532545033596      4.14956299440904     -0.03492901306864
  C   -0.10536224989540      0.74946553438139     -0.06589451181734
  C   -0.10330533667758     -0.74928825880557     -0.06621523264837
  C   0.94998512190468     -1.63988843937117     -0.05071179165467
  C   0.63034654647733     -3.02623913489784     -0.04798150334536
  N   0.33700037871148     -4.14817146668640     -0.03636084259052
  C   2.30648337826890     -1.27808105780137     -0.03169827183217
  H   3.00945242037441     -2.09741005865050     -0.01738192959708
  C   -1.51584341748367     -0.74765905359634     -0.07803365119546
  C   -1.51800672238194      0.74388282666636     -0.07766947273545
  C   -2.58689441892130      1.58078231553363      0.17230995369095
  N   -3.86413231636718      1.22144509104986      0.07593997757185
  C   -4.32170913539291     -0.00585091411443     -0.16181718418451
  N   -3.86058750978618     -1.23193456389966      0.07640664135154
  C   -2.58244826516915     -1.58765889554354      0.17208682479790
  H   -2.40012101783587     -2.62103571853679      0.44813782896743
  H   -5.33237102837255     -0.00741809825782     -0.56275157083895
  H   -2.40762284600521      2.61466122393968      0.44843234701461
  H   3.00354541639987      2.10631735102833     -0.01672762390844
