28
Coordinates from ORCA-job ./opt_b97-3c_parallel
  N   -5.77426637012368     -1.80060104255116     -0.00022743150816
  C   -4.66312060801514     -1.46668018431854     -0.00013868380204
  C   -3.29908229231617     -1.04991750329853      0.00002993705737
  C   -2.38140066521652     -2.10118812839399     -0.00060559926659
  N   -1.02625618461752     -2.09339635975234     -0.00064810615731
  C   -0.35386309931648     -0.99769887855375     -0.00005543524869
  C   1.04591418661992     -0.68180307830729      0.00005802678992
  C   0.70924199181183      0.75701035814832      0.00084363328820
  C   1.60372849047451      1.85841959760773      0.00135376616464
  N   1.12595326468282      3.10843942405766      0.00202006752673
  H   0.13990540347734      3.31568633108657      0.00219144028208
  H   1.75240265603133      3.89346969424754      0.00238579005249
  C   3.00587221547863      1.68758685184142      0.00117985471307
  C   3.78537313374861      0.54630410793846      0.00053857514093
  C   3.48756524833335     -0.82792710800826     -0.00014322192705
  C   4.59467138492986     -1.71279129837043     -0.00057807394828
  N   5.50238967117211     -2.43825028699810     -0.00049242724737
  C   2.20070533576984     -1.40066233905315     -0.00039501197136
  H   2.12078261609739     -2.47974614208805     -0.00095471168809
  H   4.84799282744014      0.75574024638464      0.00058664198432
  H   3.57012112766999      2.61252886099473      0.00162534388763
  C   -0.66461451541866      0.49396267790573      0.00077686111378
  C   -1.93056590170042      1.07897725759851      0.00116407952002
  C   -2.02735348217622      2.49599191070837      0.00198084947720
  N   -2.03844502396105      3.65744968122104      0.00258727461786
  C   -3.12093441542482      0.35626299383466      0.00082175503944
  H   -4.03073676571666      0.93778013407797      0.00120341612876
  H   -2.80829136143425     -3.09523500975980     -0.00115281851940
