32
Coordinates from ORCA-job ./opt_b97-3c_parallel
  N   -4.58974557260282     -3.51365762250912     -0.06213965498712
  C   -3.84049715768111     -2.62530386033085     -0.04557473957463
  C   -2.89428040448764     -1.56996142339109     -0.02513097559055
  C   -1.50300258508750     -1.96039757918059     -0.02538754522930
  C   -0.49769839405859     -1.08082496101691     -0.01247946058210
  C   0.97292540714507     -1.15781123580546     -0.01244912938803
  N   1.77373359039353     -2.15139508073667     -0.02067466148563
  C   3.14504575664669     -1.95639938867750     -0.00251587752045
  N   3.78484901983437     -3.15069455268897     -0.02724002498787
  H   3.22355746651396     -3.97458734221392      0.08809503831154
  H   4.77283421898823     -3.22300560404561      0.12600947861693
  C   3.88291792767015     -0.78911935316755      0.02023944368055
  C   3.51813336069138      0.57967504447534      0.01452603899003
  N   4.56386053614847      1.45372255824238      0.07283649100395
  H   4.39893453881099      2.43265108343975     -0.08634367601728
  H   5.48074459895355      1.12826100627690     -0.17014595598288
  C   2.21187779905182      1.12074948459848     -0.00366972968634
  C   2.09756081257804      2.51715721225000     -0.04108139291207
  N   2.01211423873323      3.68029185501680     -0.07669752615939
  C   1.05100855855612      0.31722240911839      0.00444939585505
  C   -0.35481217221163      0.37671758687396      0.00412141057575
  C   -1.39635089393387      1.35810813688541      0.02234316952555
  N   -1.05961225225101      2.65357906938447      0.05189885350678
  H   -1.77235315082375      3.36510401006224      0.05794389379574
  H   -0.10323456627090      2.96362375421938      0.03647307011095
  C   -2.76200609719407      0.99675345358034      0.01694104684837
  C   -3.65998193134162      2.08675569126914      0.03755753256817
  N   -4.34481010800313      3.02833929651476      0.05501908707089
  C   -3.38539414379295     -0.29147604580232     -0.00678577734589
  H   -4.46512828778192     -0.22571503857303     -0.00945164170528
  H   4.95476470505724     -0.95017286414868      0.05255934391055
  H   -1.27192890825033     -3.01621436421942     -0.03809645691599
