30
Coordinates from ORCA-job ./opt_b97-3c_parallel
  N   5.29094279197390      0.31565971097775     -0.00056811229513
  C   4.12608980176377      0.28802201088530      0.00941831764164
  C   2.71694354294981      0.29295266935416      0.01472336727926
  C   2.15706404744590      1.58583306198950      0.00376134858223
  N   0.83971821064653      1.99398088574700      0.00840984313530
  C   -0.12115722002608      1.15051206677449      0.00702194427209
  C   -0.28700238937610     -0.31077905647283      0.00188142764760
  C   0.72341743624174     -1.30251092686821      0.00335200183698
  C   0.35422527520112     -2.65582495944718     -0.01446577651452
  N   0.05291480920555     -3.78241295239352     -0.03322951461093
  C   2.09805654981789     -1.01902505693099      0.02310744562683
  N   2.96218276624830     -2.06402215357508      0.08458317459425
  H   3.94527720524938     -1.92536525861063     -0.06374000873680
  H   2.61829513486967     -3.00154636421913     -0.02365170513986
  C   -1.67913542651999     -0.13067904937009     -0.00088961127910
  C   -1.58466612565256      1.32288298574482      0.00470507981251
  C   -2.47874247188390      2.32471937307995      0.00297709177624
  C   -3.88798816962087      2.09480628801419     -0.00531782360579
  C   -4.53808211253253      0.89588419829131     -0.01074958746298
  N   -4.13048673260919     -0.40793802907551     -0.00540486127508
  C   -2.91865696232299     -0.89779159811476      0.00049705291147
  N   -2.81672064056167     -2.24041749486455      0.01256484356135
  H   -3.67302214886945     -2.76699395962892      0.00910240470172
  H   -1.94289761722593     -2.73622182393265      0.00524185951727
  H   -5.62135228002971      0.96169704064973     -0.01899560395590
  H   -4.52536021844434      2.96962826004815     -0.00922026724174
  H   -2.11688433292174      3.34481650275555      0.00709183629432
  N   2.96818328457033      2.65746102711558     -0.01100661550392
  H   3.96995802820147      2.58497661244008     -0.01399159243154
  H   2.53397699501169      3.56200898643647     -0.01289578693777
