29
Coordinates from ORCA-job ./opt_b97-3c_parallel
  N   -5.31519821790480     -1.96291374172021     -0.00307189564784
  C   -4.41128325031251     -1.23177756331416     -0.00263851061509
  C   -3.29168805567990     -0.36234792422514     -0.00202084808828
  C   -1.98934930773158     -1.00663055726452     -0.00155402356278
  C   -0.85990793017894     -0.29054189088661     -0.00106985616018
  C   -0.60528888492036      1.14418029852181     -0.00094301971709
  C   0.77832800680984      0.98520559879354     -0.00037855920647
  N   1.83207161338000      1.80061790498793      0.00012705332315
  C   3.05449885228622      1.29241739249276      0.00117914160701
  N   4.05976963981455      2.19921154514347      0.00654244945538
  H   3.84491034322043      3.17750642851954     -0.00733446034052
  H   5.01014152862124      1.88566628174104     -0.00971532225564
  N   3.54202303620504      0.01579838558463     -0.00032467459349
  C   2.95527160079870     -1.14633754487646     -0.00135095348002
  N   3.76921774646971     -2.21886916436478     -0.00335736075130
  H   3.42020903134221     -3.16045873097333     -0.00375235843130
  H   4.76080395576068     -2.06172495560550     -0.00297612131021
  C   1.50984586657970     -1.47266139930837     -0.00091497345829
  C   1.11085175014307     -2.82749995342209     -0.00145109017907
  N   0.84693146399673     -3.95930580881565     -0.00205660613067
  C   0.60190957084370     -0.47684070732404     -0.00062074441684
  C   -1.54714161299641      2.22921093899195     -0.00084074420470
  N   -0.99896042016880      3.45678112381543     -0.00013848455427
  H   0.00136501576349      3.56957673731891      0.00101338730184
  H   -1.60325932442336      4.26011893546700      0.00065273952465
  N   -2.85430431653465      2.13391400340167     -0.00131718179715
  C   -3.58628823092531      0.98740327639757     -0.00196875194155
  H   -4.64867272479267      1.20387934501656     -0.00248589437573
  H   -1.95958369956611     -2.08659462909302     -0.00162879359359
