31
Coordinates from ORCA-job ./opt_b97-3c_parallel
  N   5.16411751411481      1.79097992619699     -0.03432175822317
  C   4.24695180168538      1.07010464300502     -0.01245808141048
  C   3.08802327806635      0.27389130554448      0.01200622948625
  C   1.85202602581261      0.97600704836179      0.01281634488359
  C   0.62262695085355      0.31027673844139      0.02994939599356
  C   0.26289855946590     -1.13500419096678      0.04448868713819
  C   1.02102306147336     -2.27862246431263      0.05129027837510
  N   0.41318801285479     -3.49827282114278      0.11556079447219
  H   0.93019632907162     -4.30417441523489     -0.18772339112947
  H   -0.57900264911223     -3.52703307391732     -0.05154677117027
  C   2.45181925169991     -2.23199898467587      0.04031016552881
  C   3.27480582738549     -1.13984555408791      0.02549964451491
  H   4.32669121395947     -1.40167751967396      0.02229541210739
  H   2.95220078012244     -3.19239163699194      0.06496434471593
  C   -1.10999720363668     -0.79677520727326      0.00877691826914
  N   -2.23248973436343     -1.44012743473118     -0.00576759339565
  C   -3.39657252587839     -0.72217928502231     -0.04786905849636
  N   -4.49783883031462     -1.54589876976798     -0.12393877670712
  H   -4.32496498106868     -2.49368412820037      0.16233333435352
  H   -5.38436647055853     -1.17470250247438      0.16717308200906
  C   -3.60445697131325      0.65573811415200     -0.06761338731746
  C   -2.73268649517652      1.76783678087998     -0.05446865244939
  N   -3.32318528388701      3.01389155851482     -0.13121526129849
  H   -4.25865118365871      3.10547598329962      0.22347541571553
  H   -2.71081184695727      3.76841956451025      0.12754336028858
  N   -1.39119233844008      1.81669279756214     -0.02304647836812
  C   -0.71507909935834      0.69129014284935     -0.00430359439394
  H   -4.65159265848373      0.93223471521796     -0.13181354653644
  N   1.82927014285246      2.32047264433303      0.00052128072045
  H   2.67951284914302      2.85364967295824     -0.05918076315734
  H   0.94419019454631      2.79690149904649     -0.03805772641847
