26
Coordinates from ORCA-job ./opt_b97-3c_parallel
  N   -1.21962477945866     -4.14965316139326     -0.00156085166392
  C   -1.49931318852501     -3.02350696919342     -0.00146273393863
  C   -1.81314143682480     -1.63682826945108     -0.00142434585875
  C   -0.75809728341852     -0.74586994697344     -0.00073315827763
  C   -0.75392432821701      0.75102072206588     -0.00048600234667
  C   0.66031964081622      0.73598360769073      0.00022342084285
  C   0.65618788018247     -0.73871685791866     -0.00001851861985
  C   1.72870464167037     -1.60543123409432      0.00038204739523
  N   3.01173617960797     -1.27682473707807      0.00094977633141
  C   3.50843411849100     -0.00940980796550      0.00122347221943
  N   4.85021090084854     -0.01320198593166      0.00144484176822
  H   5.33926962007406     -0.88997392115583      0.00134880695617
  H   5.34422462773130      0.86078710223789      0.00166856381997
  N   3.01888016806373      1.26076350949216      0.00141083247657
  C   1.73771116532316      1.59662627169703      0.00094114208682
  H   1.55131361578047      2.66619099361499      0.00116280371835
  H   1.53626292618537     -2.67392436392260      0.00022700027396
  C   -1.80398196725064      1.64783240919791     -0.00091157661401
  C   -1.48244565500922      3.03274473964647     -0.00052492240584
  N   -1.19651431341323      4.15732289084069     -0.00029459869819
  C   -3.16369847346714      1.28141704438616     -0.00171703726097
  C   -3.72770659338648      0.01084895286922     -0.00222417256622
  C   -3.17079334597621     -1.26285101375907     -0.00210337986605
  H   -3.87551776058390     -2.08269303362683     -0.00260699610150
  H   -4.81086588935050      0.01387343549274     -0.00282409085176
  H   -3.86384080839335      2.10517628153196     -0.00197749871901
