27
Coordinates from ORCA-job ./opt_b97-3c_parallel
  N   6.04062946235193      0.95982767238151      0.00069544562334
  C   4.92664402894141      0.63355264288120      0.00019105503022
  C   3.55471371556342      0.24721130410069     -0.00042366073186
  C   2.65508434533652      1.36268019535228      0.00098767911252
  N   1.33253462813033      1.40272587959982      0.00090697843361
  C   0.60797138035628      0.30055329820884     -0.00063020531714
  C   0.90375754874381     -1.18642067536730     -0.00256067761899
  C   2.09699082631300     -1.82213498923745     -0.00329572366199
  C   3.32819453639819     -1.12591458480552     -0.00226210947921
  H   4.21834950059309     -1.74019718165751     -0.00300438233064
  H   2.13848770107219     -2.90481495991868     -0.00473225346706
  C   -0.51366528781669     -1.42273321343767     -0.00305603621421
  C   -0.75982982937897      0.02847301220539     -0.00116612984326
  C   -1.93011407776328      0.79991219805318     -0.00034484668756
  N   -1.78527181098019      2.12908597947207      0.00141288135502
  H   -2.58109581023830      2.74504523379404      0.00210711237175
  H   -0.85685124186407      2.52312282606644      0.00208965623936
  C   -3.22673134448986      0.20504237037794     -0.00133245472633
  C   -4.31046111913863      1.10884730864348     -0.00031729155509
  N   -5.15384843854684      1.91148327526270      0.00061720255015
  C   -3.53692159259046     -1.17227042677129     -0.00318485368199
  C   -2.77738827478722     -2.32970528936525     -0.00458595446637
  C   -1.38091887246105     -2.47539583778387     -0.00457464090321
  H   -0.98014074324722     -3.48190009317579     -0.00584578594787
  H   -3.35041217215453     -3.24704476488341     -0.00587450044281
  H   -4.60503199888879     -1.35279586063962     -0.00358523373089
  H   3.13580616844594      2.33290311924381      0.00233146989049
