32
Coordinates from ORCA-job ./opt_b97-3c_parallel
  N   -6.33998443609842     -0.72903625992425      0.01565524614379
  C   -5.18328238081689     -0.61097512251735     -0.00654663931243
  C   -3.78319055773435     -0.39325150121734     -0.02462673621551
  C   -3.02301797990035     -1.59455192287565     -0.06903895071497
  N   -1.72088896889043     -1.82444719110350     -0.07835850866326
  C   -0.85894585805405     -0.82569044731126     -0.06124218594594
  C   -0.96438944098848      0.68434644990721     -0.03139401164174
  C   -2.06010770403026      1.47017677917559      0.01773348692998
  C   -3.39857512447822      0.97339760865753      0.01696269235469
  N   -4.37406465405061      1.91965857625656      0.02898362222960
  H   -4.14137303611303      2.87109500905751      0.24134276917266
  H   -5.33669297822061      1.65581051907063      0.15166844583507
  H   -1.95549462194430      2.54877613634709      0.06883665354858
  C   0.46909386861635      0.74678819437668     -0.02277507628315
  C   0.52812003692744     -0.72897644668835     -0.04406003828166
  C   1.57115252458898     -1.66006634727264     -0.00840797621554
  N   1.24555675409982     -2.95787004268916     -0.02188249079642
  H   1.95059429934257     -3.67497424058673      0.00584108054776
  H   0.27252250917431     -3.22127370013120     -0.05156355496018
  C   2.93244039101306     -1.24638833588695      0.04346276787824
  C   3.88815757833152     -2.28481122258928      0.07824211947039
  N   4.61089915813691     -3.19686695590983      0.10462070791091
  C   3.42189573905934      0.07225893182838      0.05399136543074
  C   2.85555532711509      1.33816442738926      0.02982597343711
  C   3.76353941694815      2.42163002935651      0.02707814711560
  N   4.45019525044093      3.36156813226935      0.01553995134756
  C   1.44937204246964      1.70432368397725     -0.01198981715086
  N   1.14452840182357      3.03004890413663      0.00478383343509
  H   0.23218531909108      3.31332448305197     -0.29904010289289
  H   1.88029815396687      3.69763187528084     -0.15746069115178
  H   4.50366224142006      0.10382353100231      0.08105854076363
  H   -3.63086136474569     -2.49126145403780     -0.09009620022509
