25
Coordinates from ORCA-job ./opt_b97-3c_parallel
  N   -4.73614401621544      0.20192492829733     -0.23582224251313
  C   -3.41342692500829      0.02294324585769     -0.12937121243115
  N   -2.58301879660871      1.07156861226656     -0.13816376810949
  C   -1.32094589717927      0.56782516388600     -0.01467295878210
  C   -1.40214953412148     -0.95379299370905      0.10974397996842
  N   -0.52987304193653     -1.95301015870717      0.29777388413869
  C   0.77403960332395     -1.96688103361975      0.31824314846838
  C   1.82811109231925     -1.05492132507727      0.12853692135992
  C   3.13664831931383     -1.56746950882978      0.06391208286125
  N   4.06623239651410     -0.62184702154238     -0.16003042654909
  C   3.39534607972527      0.54037303748097     -0.20617412968175
  C   2.00344585309519      0.38332978300074     -0.03739571140536
  C   1.10769722653951      1.46519434728373      0.03413272168136
  N   1.65016880763505      2.71337869662892      0.07512909160005
  H   2.61226442713982      2.83468296644351      0.32526073982095
  H   1.05323431281863      3.50786444281430      0.20680795332661
  C   -0.30775957873244      1.48708985349681     -0.00090537345808
  H   -0.71969401172634      2.48999669851193     -0.04868918145290
  H   3.93464138230904      1.45314791025183     -0.41803713384001
  H   3.41029263169929     -2.60898531051111      0.15392723340975
  H   1.15844237340043     -2.97194736702126      0.49459327634795
  C   -2.74571756175473     -1.22459322699401      0.02456100643985
  H   -3.18280371269529     -2.20669159970663      0.09090338388538
  H   -5.35970087641611     -0.57459755178848     -0.34553565471928
  H   -5.08483629183842      1.12729145478659     -0.41315088016621
