35
Coordinates from ORCA-job ./opt_b97-3c_parallel
  N   2.58781745222794      4.07192293442147      1.21668685066746
  C   2.35709226281595      2.97573090643304      0.89696056263603
  C   2.14819218626178      1.64805350621213      0.53113318319661
  C   3.15328499077409      0.68547355642665      0.40951285380031
  C   2.58946670175310     -0.54042916741071     -0.11533863108955
  C   3.37118990712540     -1.69567499525418     -0.17796060805621
  N   4.13297760292794     -2.57669657784292     -0.16516604842167
  C   1.21408013879239     -0.37571325605342     -0.27751288966980
  C   0.93878537998111      1.07927238888323      0.02044315555427
  N   -0.05649660759090      1.81532107576277     -0.33168336476058
  C   -1.31321666081513      1.60133642973515     -0.72018762102892
  N   -1.81321222243257      2.61851387781722     -1.52070744422726
  H   -1.11257606901234      3.29317261147031     -1.78670723861570
  H   -2.39740101961559      2.31871353794647     -2.28467514314599
  C   -2.19332673726191      0.65400961393175     -0.22105627347312
  C   -1.93783537827007     -0.66849298586237      0.34458814194370
  C   -3.15809534038611     -0.98287379555279      1.00667344597450
  N   -4.09677560883462     -0.02618007666456      0.88383848639024
  C   -3.55533888487702      0.94074202327274      0.12481815180510
  N   -4.26837422696368      2.05322099961949     -0.16651984215548
  H   -5.04497040605409      2.23387453945513      0.44829159182947
  H   -3.74367893740874      2.85796833964385     -0.47518471138389
  N   -3.48652096597008     -2.13886144507316      1.66567177359780
  H   -2.74667632270121     -2.57285237700650      2.19434565527964
  H   -4.34936261573358     -2.05837197958612      2.18048087514437
  C   -0.99934467499800     -1.62129891273405     -0.08758600060289
  N   -1.32074782593947     -2.93251870864444      0.05334720945385
  H   -0.69237700643039     -3.62920692335733     -0.30936421567655
  H   -2.28964759612720     -3.19542983109717      0.12458672070967
  C   0.31034893334219     -1.38764770077249     -0.65282902507979
  C   0.84255302082704     -2.46913796824160     -1.38789407702180
  N   1.19980246360592     -3.36832820745731     -2.03687138841532
  N   4.43475880808984      0.82474931486614      0.72651841848344
  H   5.08389215004489      0.06984709329987      0.58383927469068
  H   4.77605724345779      1.68366391871877      1.12138137506767
