29
Coordinates from ORCA-job ./opt_b97-3c_parallel
  N   5.49388414945567      0.18904152197222     -0.00524451259266
  C   4.33393582871524      0.21885849850015     -0.09343490597533
  C   2.93734699133437      0.18338238927927     -0.19830334439661
  C   2.06982912366744      1.27622145287201     -0.22576500673047
  C   0.74128279205626      0.80517340117337     -0.22227481287630
  C   0.80545118431707     -0.67597182475230     -0.26313799383703
  C   -0.13241492733309     -1.67848379505445     -0.54987267019639
  C   -1.50029333554907     -1.78722165664981     -0.56265924525988
  C   -2.55336403849722     -0.95864257343163     -0.15688913730900
  C   -2.57455767839703      0.45808693623539      0.33615899729724
  C   -1.67845401442758      1.47877421595446      0.30635493809426
  C   -0.33099572013697      1.69283041594188     -0.13247313343848
  N   -0.06518730105751      3.02762146599068     -0.32212970975239
  H   -0.84803621856872      3.64815802215339     -0.41766558177817
  H   0.72327567737261      3.27061149111452     -0.89278009940176
  H   -2.11624224446743      2.40831609599247      0.66206769773917
  C   -3.92475942901285      0.71447525739922      0.75498682420412
  C   -4.68066248521925     -0.39769761614059      0.49757787073312
  C   -3.85738244174354     -1.41087728368238     -0.06728568636145
  H   -4.18299207637683     -2.40123046708393     -0.34531881883104
  H   -5.73946678422968     -0.49642489124572      0.68665490355285
  H   -4.26979637160691      1.65853173640411      1.14564572177741
  H   -1.85004907599560     -2.76317421597452     -0.88321594961175
  H   0.35110238775580     -2.60507255777402     -0.84363320283773
  C   2.17149623641618     -1.01271684310592     -0.23046319796541
  N   2.70872608045342     -2.28129851914891     -0.30648770184445
  H   3.70699724053697     -2.31317981230808     -0.17197383842191
  H   2.24692941732418     -2.97539539650975      0.25764379078670
  H   2.39606683061142      2.29357316667791     -0.09562093476516
