30
Coordinates from ORCA-job ./opt_b97-3c_parallel
  N   -1.55646487703805     -3.47882653809213     -1.32576343155271
  C   -1.18313949678399     -2.44801454218613     -0.93636872111496
  C   -0.60733775885662     -1.23343180994340     -0.48992922031933
  C   -1.54679378515398     -0.26816175549629     -0.08652133151085
  C   -1.45094913615479      1.24783084908070      0.07269483339255
  N   -0.56576436950177      2.08425145045597     -0.36636788417618
  C   0.71720316228421      1.98422237997092     -0.68437847000818
  N   1.13455567475370      2.93163376632567     -1.55571250156806
  H   0.53254044447604      3.71199762090220     -1.75100353816269
  H   2.08096502206169      2.93794544944269     -1.88468652006115
  C   1.69664875888775      1.14677353146951     -0.10286671336524
  C   2.96182799494068      1.64636383842916      0.25790227950118
  C   3.68261454977772      0.63979115190147      0.89056708748149
  C   2.91049045023520     -0.52757823493825      0.87757502070358
  N   3.35495926967344     -1.78078561742133      1.33524359075334
  H   2.70691577286150     -2.22234819892698      1.97311951454573
  H   4.25795840230559     -1.71573383430655      1.77940867554248
  C   1.65386551090349     -0.25841628486505      0.26930697893848
  C   0.80214278039955     -1.28394068537460     -0.24347491678682
  N   1.38483167258416     -2.47639320818754     -0.47652187150570
  H   0.83015125882378     -3.28886452819107     -0.68623490359159
  H   2.35739192214648     -2.60427567877490     -0.23950400174565
  H   4.65468878431136      0.74127320752906      1.34981624337230
  H   3.25708624575649      2.68143882992110      0.18655175554517
  N   -2.64155031843290      1.67724301553634      0.54336114384509
  C   -3.38677302836115      0.56599787585901      0.57539313192188
  N   -2.80371303609330     -0.60806960516706      0.16810292040492
  N   -4.65008543964943      0.56230942410961      0.99327173189320
  H   -5.17907169143878     -0.28933759096086      0.96242846271603
  H   -5.07947113041907      1.41493379739775      1.30027824001201
