28
Coordinates from ORCA-job ./opt_b97-3c_parallel
  N   -4.79146952798789     -2.45024445354658      0.48209651034996
  C   -4.15644581264827     -1.51336219187767      0.21389673549083
  C   -3.43596810943751     -0.36465615488141     -0.12859880496286
  C   -3.96151683530013      0.72614812410665     -0.93544697826070
  C   -3.00618560013169      1.65987276074224     -1.14279067393009
  C   -1.80920582098300      1.25179305923695     -0.44152824870069
  N   -0.79189794461514      2.02302133942925     -0.36948788343687
  C   0.44856572393821      1.94470877743826      0.14313495321534
  N   0.90758434649191      3.13754505063246      0.58492045527765
  H   1.71073274920851      3.18607663957504      1.18208832452082
  H   0.33992424644280      3.95669791190775      0.45915614808759
  C   1.32657588700387      0.85475660937996      0.08094928007582
  C   2.70931916565878      1.01290748769073     -0.08665896980928
  C   3.31840362577201     -0.24369384756757     -0.03477049921234
  C   4.67274978015918     -0.54544889613866     -0.21599985385764
  N   5.78438222414902     -0.85867993136335     -0.35940118975792
  C   2.31081674597880     -1.22071052409010      0.22651060718545
  N   2.56243509678508     -2.54244884952535      0.42974712362901
  H   1.84762511669094     -3.20239286937356      0.18238568432498
  H   3.49566270354962     -2.86154372010630      0.23101460763838
  C   1.05787911796554     -0.57078123876595      0.29283703309537
  C   -0.06587904398210     -1.23440989053103      0.81823982092496
  N   -1.35742602822510     -1.03433057485989      0.78786267666214
  C   -2.10623180909332     -0.12285116331239      0.17765739195444
  H   0.18850702396282     -2.14957587617994      1.35307353226702
  H   3.21619110634098      1.93601550684226     -0.31385557222586
  H   -3.10028826596610      2.60131072645180     -1.65638428181163
  H   -4.97891146722846      0.75815973298594     -1.29281827783508
