28
Coordinates from ORCA-job ./opt_b97-3c_parallel
  N   -1.40678024369133     -3.51030638023245     -0.44173824948818
  C   -1.08535258541476     -2.39993595331364     -0.31657740427493
  C   -0.53369498885534     -1.09380462197198     -0.19496361811098
  C   -1.51463161488878     -0.10868695058318     -0.05691284496083
  C   -1.50759115325301      1.43115639078378     -0.09232366161428
  N   -0.63811602376679      2.34935234462468     -0.49242385138130
  C   0.65325040796756      2.29383065401340     -0.69789055657285
  C   1.67034138850590      1.39594915962899     -0.37813481980343
  C   2.99530858395835      1.87435448490208     -0.38043865730180
  N   3.87195004527497      0.99623803981806      0.11785440163272
  C   3.15862947783281     -0.11057899039121      0.40973176447312
  N   3.83030537634766     -1.22556651303608      0.89653680050130
  H   3.41071600575484     -1.63652952602602      1.71864040927791
  H   4.79854260910619     -0.99547338911100      1.06912945632915
  C   1.77483729220150      0.02209989590016      0.11023865290837
  C   0.90489154289905     -1.07991004132799     -0.04650839524586
  N   1.47158903407686     -2.30287567571775     -0.01988130087790
  H   2.47683398357276     -2.38798462390168     -0.05292673700812
  H   0.91365317505040     -3.13018769461463     -0.14364638832533
  H   3.30596905907735      2.86600854240612     -0.67522282102443
  H   1.03773581466789      3.21146649383701     -1.14202403889612
  C   -2.80225452349721      1.77760950293514      0.23941316234149
  C   -3.52472957178383      0.57077660764805      0.36567919977226
  N   -2.76944480125795     -0.53336248186388      0.15930559979262
  N   -4.81999281429815      0.42875554532358      0.64326125896565
  H   -5.20967946184373     -0.49712437795444      0.67996325068675
  H   -5.40711395862455      1.21416533683704      0.85007697203774
  H   -3.18344763241797      2.78387016759138      0.26434667486893
