29
Coordinates from ORCA-job ./opt_b97-3c_parallel
  N   -5.28051721528508     -0.08369387497532     -0.04868993596367
  C   -3.93251825551745      0.00025878592318     -0.01603962289754
  N   -3.17896167037365     -1.09643072469416     -0.06910494353235
  C   -1.87556848462348     -0.66308521063472     -0.05579775790539
  C   -0.89776196840192     -1.62180343869307     -0.08893055462941
  C   0.51243332611278     -1.64296512373116     -0.05237051151973
  C   1.52759096221340     -0.73508031772809      0.00789574710005
  C   2.90241200066604     -1.18055314255833      0.04695666595423
  C   3.72934129639634     -0.07866483383101      0.01760569642115
  C   2.93546433763438      1.09522324070030     -0.01070663048436
  N   3.48408018949760      2.35738661212729     -0.08748781194177
  H   4.42103144469777      2.42840257056785      0.27275360113353
  H   2.90588197769175      3.10771977035510      0.25179781137890
  C   1.57401540990962      0.75344196286194     -0.00985758692466
  C   0.57702811325225      1.72642358230402     -0.01250638997764
  C   -0.79922793824917      1.77886818791330      0.00492836281703
  C   -1.84163454970610      0.83566724262626      0.00577648284677
  C   -3.17122992719233      1.20423540458267      0.02890103917328
  H   -3.55487640132966      2.21236524061219      0.05615628217314
  H   -1.17973488757578      2.79481781748755      0.01667053414593
  H   0.98948963876914      2.73115993017948     -0.04587626630642
  H   4.80997672612131     -0.09716577521074      0.02112823592161
  N   3.31898657246440     -2.49776049258025      0.02709961342068
  H   4.28518462157175     -2.62282931165425      0.27992860851170
  H   2.73414855725928     -3.14015852825947      0.53571345582421
  H   0.86607749562544     -2.66801112972101     -0.09701420387539
  H   -1.33450702688962     -2.61198078714014     -0.14345468911223
  H   -5.67977445638697     -0.99544846160475      0.09274363758671
  H   -5.83002511335092      0.70116953837431      0.24785424226150
