28
Coordinates from ORCA-job ./opt_b97-3c_parallel
  N   4.94244452066803      0.93621604523649      1.60073600323420
  C   4.11791433542357      0.34988504684154      1.02547229419427
  C   3.14679143743287     -0.37904595851273      0.33672294811973
  C   3.38631954987201     -1.44900079033523     -0.57549813236341
  N   2.31784731979955     -1.92286962665692     -1.19680556099342
  C   1.25780724072172     -1.22739132125476     -0.66197353647532
  N   0.07237701712259     -1.70442595809004     -0.72663748269932
  C   -1.08788910386113     -1.39814118080677     -0.10990780365492
  N   -1.72743722211473     -2.53596656706958      0.35576184964007
  H   -1.17843986373871     -3.37405304836038      0.24103511444948
  H   -2.16451417935056     -2.45239046949465      1.25998476342758
  C   -1.74864577236534     -0.18918445183423     -0.06376842484063
  C   -3.16619296579727     -0.02898747773318     -0.08989676207604
  C   -3.47012783097952      1.33179955422354     -0.24342047888865
  C   -2.28409076487293      2.06005920039366     -0.28870994984203
  N   -2.20464268950792      3.41580678339557     -0.35853441555510
  H   -1.37182901860191      3.82336600078248     -0.74323878969873
  H   -3.04453203455703      3.91312475238602     -0.59391805580695
  C   -1.16856448196834      1.16098371072337     -0.14286551396460
  C   0.07999780432894      1.62977087240421      0.18624107546718
  N   1.24817581697247      1.08260385283183      0.54119662864809
  C   1.78472289980004     -0.05402354612676      0.19115159853090
  H   0.14258027264354      2.71532357941099      0.24316709074370
  H   -4.46610855342791      1.74255959858664     -0.31673354730303
  N   -4.09697872596771     -1.02150314372366     -0.03743711551035
  H   -4.99792161352907     -0.80765133996289     -0.43043702534115
  H   -3.76481688695053     -1.95238177160349     -0.24055970098861
  H   4.36642051620462     -1.85651813045092     -0.78650181515345
