31
Coordinates from ORCA-job ./opt_b97-3c_parallel
  N   -4.95150798265754     -0.52391984158910      1.02393036926958
  C   -3.95143751974445      0.03092706588563      0.81548174376810
  C   -2.76816101802521      0.75842070362911      0.62003324082080
  C   -2.55261109461676      2.01111544142921      1.13364491802830
  C   -1.19546491635301      2.38095602496050      0.89776697080710
  C   -0.51470622499239      1.34478518700584      0.30514523593207
  C   0.81113133135371      1.55038354266636     -0.26081660627120
  C   1.03259424560642      2.85258446516187     -0.76734722735448
  N   1.26564157890202      3.91447675783773     -1.18490295057341
  C   1.90528865289201      0.71413703903785     -0.26089943880876
  N   3.14314483972678      1.22712717108444     -0.62291524539983
  H   3.70476574408488      0.60582966792795     -1.18405713935115
  H   3.13597526546409      2.16955875004405     -0.98510494717952
  C   1.94876235880397     -0.67109861574045      0.14158589319786
  C   1.06808940212638     -1.73711741633659     -0.24811459861460
  C   1.77067855663951     -2.99953534079589      0.01100183906820
  C   2.93698273249099     -2.72992755996763      0.62677309754277
  C   3.08778706082219     -1.28348279864824      0.68410642160228
  N   4.16274011262090     -0.69041678905804      1.22926297577685
  H   4.27218869136326      0.30653480923867      1.13840741898399
  H   4.96948200746000     -1.23187588287865      1.47933759871041
  H   3.64497279530480     -3.43714557562777      1.03045641866543
  H   1.33880798681551     -3.97045182257299     -0.17022438401166
  C   -0.22642214002899     -1.81462548709766     -0.68143890323715
  C   -1.35595234174311     -0.95152879292316     -0.54453052498997
  C   -2.53585503966171     -1.58032763917021     -1.05055176489571
  N   -3.40469870648179     -2.14173700527538     -1.57543639908890
  C   -1.49092374851895      0.27129807317104      0.08025184070539
  H   -0.50718776811059     -2.79635315020690     -1.04063444764366
  H   -0.77364301893009      3.34906373610634      1.11534659269580
  H   -3.28535306471292      2.59921425690388      1.66167605054471
