29
Coordinates from ORCA-job ./opt_b97-3c_parallel
  N   -0.19029057053479     -3.16850440570825     -0.74395604176427
  C   0.04845311185536     -1.88514603322697     -0.32689169029101
  C   1.40816852253468     -1.62433737322959     -0.05352536706358
  C   2.17878810861538     -0.50900277401619      0.15312382795056
  C   1.94353322196904      0.95831072625767     -0.14121507759657
  C   0.83458890433981      1.67685932329789     -0.54261595702035
  C   -0.55336015551419      1.47813839705348     -0.55169269315911
  N   -1.26723846941974      2.53379872028657     -1.04811388555295
  H   -0.81739644614776      3.42946123725977     -1.11205969179537
  H   -2.26960959763156      2.54133286633530     -0.89455156621141
  C   -1.32371113741690      0.37198242110569     -0.08962599487871
  C   -1.08321575143250     -1.07087016786913     -0.12452285798722
  C   -2.33921998234728     -1.64209559296924      0.18034240553681
  N   -3.27234499217427     -0.72122876490716      0.44889345858434
  C   -2.68482626675918      0.47637550018023      0.26186576217004
  N   -3.44279129801036      1.65692504945914      0.41659115098615
  H   -4.40337372747585      1.39410729411494      0.59196210839220
  H   -3.12225722210055      2.21215250670189      1.20041261233566
  H   -2.55482724246545     -2.68612151095652      0.35402475657270
  H   1.10652437611073      2.68202766986001     -0.85575448686438
  C   3.19333960372432      1.57777444799430     -0.00086598566912
  C   4.13693263537101      0.62908980279539      0.40914634286853
  C   3.54415024126221     -0.62390154724726      0.49325550431913
  H   4.03531373649835     -1.55203750022999      0.73869358832531
  H   5.17464542524054      0.84154237496399      0.62358884666324
  H   3.37182631065757      2.63140783475439     -0.14656117059649
  H   1.99432065697591     -2.53858414449661      0.00598018426999
  H   -1.13481986164211     -3.47048276469058     -0.88869252756380
  H   0.48161130751881     -3.88772126187301     -0.54594612676232
