32
Coordinates from ORCA-job ./opt_b97-3c_parallel
  N   -6.78074433231730     -0.61750591841584     -0.48334476809020
  C   -5.64237786050386     -0.50383178921862     -0.28252569689263
  C   -4.26672760847872     -0.35356998658737     -0.03419271433739
  C   -3.33469736562105     -1.37994812695062      0.11055271419115
  C   -2.04991032335563     -0.81646442252648      0.27340370968294
  C   -2.23183333777326      0.63969235480439      0.29959099465254
  C   -1.32790251794416      1.67268306846993      0.64428134013830
  N   -1.88294768070719      2.84755690863144      1.03362133740382
  H   -2.84214020583586      2.89138568671882      1.31871782687953
  H   -1.30900274328084      3.64287549834417      1.24405350826913
  C   0.08063184039434      1.72295994191208      0.56856786794239
  C   1.12210228478160      0.91169194817013      0.18927349994155
  C   2.40465916860000      1.51318684786578     -0.01566576771823
  C   2.70680838860915      2.87086408357502      0.08009050639984
  N   2.97689712063449      4.00108948613457      0.16265066056322
  C   3.31530087569268      0.52588851292203     -0.40776943230670
  C   2.63677518129960     -0.74042811578016     -0.40070416554202
  C   3.32701345646619     -1.88402451263335     -0.81538107656757
  N   4.04274311675699     -2.70525082013643     -1.22483207257512
  C   1.30409861582051     -0.55038195227597     -0.01576200832334
  C   0.41783982801014     -1.61761352036143      0.25600208138367
  C   1.01702899342304     -2.90211105087183      0.42329276646493
  N   1.43699053998356     -3.96406398688398      0.63130795427215
  C   -0.97069536855111     -1.68712976821089      0.35784874906881
  H   -1.30427123867750     -2.71268367844171      0.46023704448790
  N   4.58752846468029      0.69244839430814     -0.75191248880772
  H   5.14661225742321     -0.09298347324395     -1.03977271506036
  H   5.01084014519392      1.60365878145037     -0.74719978197408
  H   0.44126374698606      2.72498909444228      0.77920535425420
  C   -3.59235930854593      0.87962614935866      0.10214269818272
  H   -4.07676480210374      1.83731652665157      0.00939673172403
  H   -3.54444520805845     -2.43490603221961      0.05141553219289
