27
Coordinates from ORCA-job ./opt_b97-3c_parallel
  N   -0.87510630882085     -4.23633991053391     -0.01226817339672
  C   -0.49559783461598     -3.13870897304031     -0.01182075506134
  C   -0.03065287248906     -1.78941779190450     -0.01110738677387
  C   1.35767235538903     -1.71699280142411     -0.00937970326162
  C   2.32109533405166     -0.71862304886814     -0.00802767809594
  C   2.27233113445294      0.76090088562603     -0.00813649282806
  C   1.26111625461571      1.68941211211153     -0.00957999630845
  C   -0.14650223921195      1.68191111541562     -0.01132705197427
  C   -0.68314850080818      3.00898287253703     -0.01219675827409
  N   -1.00941112471444      4.12236338233925     -0.01280059626033
  C   -1.12368977954647      0.67747827989952     -0.01222072917391
  N   -2.40230652062640      1.09328191218584     -0.01355201942491
  C   -3.17205385802279     -0.01199903333793     -0.01428354991868
  C   -2.40846221517489     -1.20617899633358     -0.01349449754354
  C   -1.08135545374302     -0.82994579619101     -0.01213599829297
  H   -2.78901746715552     -2.21294892690406     -0.01387218071551
  N   -4.50037927430890      0.09562407006739     -0.01559460871298
  H   -4.91596258137144      1.01073105997104     -0.01600356522124
  H   -5.09728590285544     -0.70960814374923     -0.01611361697793
  H   1.64507570089718      2.70285929236436     -0.00921949508835
  C   3.62289786220637      1.19986557076011     -0.00633955715029
  C   4.46417092997013      0.10146781174493     -0.00514812643091
  C   3.67976006077342     -1.06185575626947     -0.00619784204541
  H   4.05051296323105     -2.07538328444080     -0.00569113064707
  H   5.54256871723760      0.13067309216461     -0.00367364273726
  H   3.92113934443399      2.23662459255344     -0.00598333414039
  H   1.80979680880623     -2.70230695294383     -0.00891135324397
