29
Coordinates from ORCA-job ./opt_b97-3c_parallel
  N   -6.15767123437698     -0.92053379642149      0.09872068009287
  C   -5.01478287249090     -0.73308776661780      0.00624448393479
  C   -3.63484576124261     -0.49191528183223     -0.11257906829474
  C   -2.62310824330609     -1.44003161814670     -0.06096678317809
  C   -1.36848619593035     -0.78511696360106     -0.15710563155306
  C   -0.23650120398482     -1.57454559076405     -0.02581682244440
  C   1.13477101750673     -1.38769229896336      0.15164342405800
  C   1.84590749259972     -2.61520912990620      0.32895842144289
  N   2.34736396234171     -3.65436911778898      0.44974816845360
  C   1.93631840080564     -0.23651643635355      0.25552512271505
  N   3.21668919975356     -0.39913040769257      0.58309521267961
  C   3.79207918676323      0.83725273425278      0.54949454152761
  C   2.89129475198095      1.83741317261045      0.16271660006155
  C   1.65688795562077      1.21535894828392     -0.02851273539382
  C   0.56258676529214      1.93433079460464     -0.48961048695510
  C   -0.81156370149708      1.74861402299866     -0.65421384229553
  N   -1.46856642204931      2.86213622944114     -1.12004096778420
  H   -2.33146109790670      2.72459236305985     -1.61331076396873
  H   -0.91378341388135      3.62617841665939     -1.46057713780321
  C   -1.65577759013021      0.64644890958604     -0.33727993882936
  C   -3.04060067557710      0.78187025457827     -0.29513214732283
  H   -3.60379606039900      1.69882231920125     -0.33194647283036
  H   0.86064674453790      2.94609480072191     -0.74967359037561
  H   3.09441176614267      2.88948406844947      0.04727229807071
  N   5.08282026308643      0.95346125285881      0.87287886690094
  H   5.55390568372396      1.83755526708362      0.87675401121818
  H   5.59009665078385      0.12924076290792      1.14183438461535
  H   -0.49520063819534     -2.62580044896814      0.01493311769619
  H   -2.75516425897109     -2.49939926074114      0.08308700566052
