26
Coordinates from ORCA-job ./opt_b97-3c_parallel
  N   -4.80685206717502     -0.50838277711369      0.70154988251982
  C   -3.54421415707647     -0.27267927081798      0.34614272625936
  N   -2.78821616400955     -1.28821588554199     -0.11733579130619
  C   -1.57129797578461     -0.76668270719265     -0.36399029162795
  N   -0.63157110850293     -1.54615337393619     -0.81325878983622
  C   0.69299583657093     -1.48774108242095     -0.80856725227018
  C   1.59416729690313     -0.67283802363382     -0.15651669486259
  C   2.94584507571904     -1.09160881735734      0.14344490805810
  N   3.65861768164431     -0.12847530058127      0.72520159300229
  C   2.83503704370451      0.95641103970968      0.77244730135477
  C   1.55442228675102      0.71000711690710      0.29591318644049
  C   0.61685872473133      1.73851355878272     -0.04676245837914
  N   -0.68853470982164      1.71443234418029     -0.14152236420850
  C   -1.59531599649860      0.75903391475939     -0.02717714136604
  C   -2.87958118771182      0.98225634260543      0.40252763150748
  H   -3.28796738082484      1.92802181625646      0.71771448492133
  N   1.15370082466835      2.98531799764007     -0.22756609330622
  H   2.09015067904867      3.05996189350940     -0.57951113556618
  H   0.50318254437709      3.69993834407828     -0.50578995965199
  H   3.20186255878068      1.88968106944466      1.17453380568943
  N   3.48867029523935     -2.32069580678683     -0.09990735873671
  H   4.36492380694928     -2.47485326464955      0.37112430129249
  H   2.87318611335105     -3.11339768761315     -0.07873578279893
  H   1.13760650247311     -2.32240976793710     -1.34988937739140
  H   -5.40647393773401      0.21869988376407      1.04261448050101
  H   -5.16828642947277     -1.44214502105596      0.61460256306226
