31
Coordinates from ORCA-job ./opt_b97-3c_parallel
  N   -3.08556099958685     -3.53666227567021     -0.07832886056606
  C   -2.65968347082616     -2.45144694669163     -0.05291889418006
  C   -2.17910045980602     -1.14497372748000     -0.01845189950946
  C   -2.99776987546380      0.00251348073758     -0.12418866205895
  C   -2.17739912387318      1.14848638748918     -0.01521170578945
  C   -2.65604454141964      2.45576631986802     -0.04601518752865
  N   -3.08030821408990      3.54167704397996     -0.06843915177718
  C   -0.82108796179761      0.74593681161091      0.13941096317138
  C   -0.82219373753006     -0.74486861512134      0.13731335210449
  C   0.14650555974858     -1.68678373165274      0.39037979030082
  C   1.55258230315437     -1.71015772488588      0.40819742853380
  N   2.07960861932252     -2.90617880155388      0.77424146114185
  H   1.50363348267214     -3.72212614073346      0.86881366554277
  H   3.07004552023419     -3.02057169983294      0.86821389075936
  C   2.48506329196660     -0.72668752224514     -0.00617179493585
  C   3.75681595582372     -1.07360987554853     -0.50423917284948
  N   4.49420586140769     -0.00208099429078     -0.83814736396143
  C   3.75841100415492      1.06960784939851     -0.50124174124766
  C   2.48614461408824      0.72318923252437     -0.00413772490409
  C   1.55513709989769      1.70688910738552      0.41300339779289
  N   2.08396641288626      2.90107304321974      0.78243609575177
  H   3.07458095026230      3.01370029539810      0.87668997651267
  H   1.50923295777979      3.71763462360081      0.87925469073940
  C   0.14902280249444      1.68568329969686      0.39512927696091
  H   -0.27884554432720      2.66913194892906      0.56581488523331
  H   4.11874736535163      2.06425682717362     -0.72101802459831
  H   4.11566846675889     -2.06817554263374     -0.72679510437273
  H   -0.28283764718233     -2.67006443943959      0.55828307799019
  N   -4.31895107977190      0.00376476131579     -0.30487244775134
  H   -4.83083289003799     -0.85785429948746     -0.36744888930436
  H   -4.82951889669062      0.86633767323941     -0.36500355140019
