31
Coordinates from ORCA-job ./opt_b97-3c_parallel
  N   -4.85754934991191     -1.65939819047761     -0.56975887087082
  C   -4.05755388382760     -0.81615006150370     -0.50386941080117
  C   -3.05652379214562      0.15095934210362     -0.38883104083481
  C   -3.13265220176935      1.51114040934082     -0.60553490850374
  N   -1.95562845137803      2.14896746686190     -0.36937311174043
  C   -1.04620738510328      1.22272793235510     -0.05070897840376
  C   -1.68611600176267     -0.11762898356607     -0.00969213297396
  C   -1.31728675807114     -1.32335975899023      0.49555351814780
  C   -0.07098848289958     -1.93584438509580      0.80449321864112
  N   -0.17494565366836     -3.06906233073770      1.55340587500661
  H   -1.05260004490586     -3.55376892349470      1.62005584982456
  H   0.64980890268802     -3.60038811962763      1.76226698775264
  C   1.17769517228885     -1.60263182135948      0.27315798451736
  C   1.76795013476680     -0.33653782069995     -0.14377279596882
  C   1.48155630185321      0.99802845922856      0.32092274894925
  N   2.56019670520573      1.71883908793743      0.69344004480307
  H   3.48063751938453      1.32737392638019      0.59498556213161
  H   2.48156052832146      2.70540292414768      0.87860676508313
  C   0.23415651898289      1.66023710529370      0.36233536855220
  C   0.29719938711244      3.03067234159521      0.72023244875315
  N   0.49252989720771      4.12840537204222      1.05099845667547
  C   2.99822068573184     -0.66234077016390     -0.74122254692550
  C   3.17964231464225     -2.06917844626950     -0.71377127024589
  C   2.11064392447499     -2.63155941594100     -0.06187773388576
  H   1.91143526011418     -3.68940893061302     -0.00196573554629
  H   3.99130904147378     -2.60005732897842     -1.18802564107203
  N   3.94732677464261      0.22562315416294     -1.23476886747118
  H   3.56862989204048      1.01178439270385     -1.74033281887517
  H   4.67463042211342     -0.22129282441937     -1.76895142858567
  H   -2.15731517532637     -1.99726675634606      0.64590139129177
  H   -3.99667415677571      2.06584227243119     -0.93762661602391
