27
Coordinates from ORCA-job ./opt_b97-3c_parallel
  N   -1.44379105388947     -3.45375601899802     -0.32166912702278
  C   -1.04052268966609     -2.36699361095757     -0.23368725383182
  C   -0.37318759316063     -1.11737866541381     -0.08239551490182
  C   -1.26468723668677     -0.03644294290494     -0.08740684376208
  N   -2.54308695855809     -0.33420660399662     -0.37981478994421
  C   -3.26804168787189      0.78439137455770     -0.16185100497006
  C   -2.48172601433975      1.85933737419210      0.30410576085588
  C   -1.17376062454604      1.40720093778682      0.35198479691714
  C   -0.12762018295222      2.23417349430473      0.76861607514900
  C   1.24119138770401      2.12842317139868      0.72913475137396
  C   2.13856408632372      1.15417652345643      0.30254742967341
  C   3.50320040193039      1.48525759142308      0.14067623494620
  N   4.23095640974375      0.47632899445808     -0.34859425535104
  C   3.38440738179363     -0.56922617325894     -0.45293278413979
  C   2.06506697022033     -0.25105928481250     -0.07856208613735
  C   1.05737942418058     -1.24328738898228      0.00555227544688
  N   1.51115966186654     -2.51085460271879      0.08991976482560
  H   0.89339672147853     -3.30099474547004      0.01603190034694
  H   2.48234117868270     -2.68189177675664      0.26220873315236
  H   3.73636386040054     -1.49934020682608     -0.87549932740713
  H   3.94004161072687      2.45451670151795      0.33642864063090
  H   1.74510250674078      3.03771846417699      1.04257445470293
  H   -0.48011504123255      3.19671225953015      1.12260549345569
  H   -2.81683792569971      2.85284439837492      0.55334626997541
  N   -4.58206315654086      0.77552881760171     -0.39995983806439
  H   -5.01114985558793     -0.07265633909751     -0.72498998234829
  H   -5.15571887256344      1.58160906571421     -0.24294200357256
