29
Coordinates from ORCA-job ./opt_b97-3c_parallel
  N   -6.05616184751148      0.00040530367108      1.34356899455708
  C   -4.96695389643396      0.00071085722174      0.93849213802915
  C   -3.65390975276737      0.00108494930981      0.43927681352175
  C   -2.88709214942742     -1.14119169981169      0.13818553749349
  C   -1.62299340655003     -0.72568141940409     -0.28471034437665
  C   -0.63559161515960     -1.62297915964571     -0.78943728919391
  N   0.66870348420611     -1.62240620285988     -0.55520698508077
  C   1.56031482759663     -0.76929978295028     -0.17594990413893
  C   1.56098451425389      0.76911062657932     -0.17294374155876
  N   0.67014105340215      1.62447611928607     -0.54887286395423
  C   -0.63413814661783      1.62714266468234     -0.78317944899859
  N   -1.06129041208383      2.71753363175429     -1.44762554919600
  H   -2.00669510621444      2.78725302579530     -1.77368030728375
  H   -0.41398354121016      3.46491260412765     -1.63162278824109
  C   -1.62235570136928      0.72880433060490     -0.28193985548466
  C   -2.88609268949697      1.14381902605817      0.14253099501357
  H   -3.20575195180666      2.16321323949357      0.28230557805100
  C   2.83076813921311      1.15379118179708      0.32963537474590
  C   3.25506427796829      2.47979992499065      0.47607757854974
  N   3.59376900232549      3.58612298811138      0.58719114803393
  C   3.56409107675998     -0.00251994324165      0.62509245050944
  C   2.82977210499586     -1.15704185450706      0.32509070674732
  C   3.25293225411422     -2.48398337156242      0.46628537769630
  N   3.59065857376706     -3.59103234049046      0.57306315065417
  H   4.56575549884241     -0.00373966010299      1.02420068447860
  N   -1.06377773836889     -2.71042035943510     -1.45804448929854
  H   -2.00923578646981     -2.77797883192359     -1.78439889850008
  H   -0.41713868891680     -3.45763541896636     -1.64503186638974
  H   -3.20765921474100     -2.16082778018227      0.27406198821396
