28
Coordinates from ORCA-job ./opt_b97-3c_parallel
  N   6.18922058672506      0.39990727833128     -0.50516194373135
  C   5.04618990041895      0.27133435765812     -0.34284175285593
  C   3.66333562659810      0.12152325013888     -0.14026791509725
  C   2.91860026461627     -1.04692358338774     -0.34923819368049
  C   1.56491151887846     -0.78884370367807     -0.07103974602069
  C   1.50109633838169      0.60770907218516      0.37500058016950
  C   0.39957419647724      1.33167883848285      0.87748192804566
  N   -0.84408642890237      1.32821429807717      0.40295953530874
  C   -1.71752186423554      0.50361714530091     -0.03597589225614
  C   -3.02764235032165      0.98208603039475     -0.44435084063672
  C   -3.37310793202703      2.33537903463407     -0.51156930758350
  N   -3.63783454292827      3.46649217161487     -0.55901345075266
  C   -3.84811834565417     -0.11923846837275     -0.56567747721815
  C   -3.11435462914528     -1.30877636549983     -0.32028682508691
  C   -1.79387933636944     -1.00493980974678     -0.05768113763127
  C   -0.74508968283996     -1.95610763902238     -0.03548078386280
  C   -1.19154445098443     -3.30959270697253     -0.09692041695758
  N   -1.56295219164604     -4.40848114880717     -0.13699715702521
  C   0.63942141341405     -1.83380009864031     -0.11322717892173
  H   1.12244583294575     -2.78943544771216     -0.27836181835595
  H   -3.51720096941889     -2.30420510191005     -0.40205186623071
  H   -4.89944435177074     -0.08110594068000     -0.80357901395746
  N   0.60615662025768      2.26537220118432      1.82309437276329
  H   1.45904785240256      2.28792947757126      2.34977421471536
  H   -0.12544892709679      2.92125352549639      2.03699891250353
  C   2.79387296850701      1.12783522838771      0.32960966157411
  H   3.08360927824571      2.14075994869535      0.55517026553775
  H   3.31585362157189     -1.99414581932352     -0.67436218015533
