32
Coordinates from ORCA-job ./opt_b97-3c_parallel
  N   -4.06406389257171     -3.44352608083194     -0.57640228875627
  C   -3.57322635013994     -2.39364175236645     -0.44697546085301
  C   -3.02560003584666     -1.12345635177330     -0.28844039133695
  C   -3.76968661187887      0.00466025322498      0.11561777493716
  C   -2.88827344653135      1.11737421915904      0.27317121020152
  C   -3.32574141903424      2.40559494207622      0.57759987036623
  N   -3.77290655727379      3.44679763833353      0.84638573226409
  C   -1.58380549104601      0.72012167309012     -0.07389030806963
  N   -0.63827659872418      1.61208469198899     -0.22788335844259
  C   0.66188617110413      1.60317836599756     -0.43556750887709
  C   1.68831741204660      0.70812760829379     -0.20474366233260
  C   1.69437555093012     -0.75592295749407      0.01683225151315
  C   3.06529413325283     -1.13057477302243      0.21428598135533
  C   3.87488531025588      0.00759707075820      0.06381096350192
  C   5.26302809229843      0.04403078886980      0.20193983577595
  N   6.42069902620217      0.07725465378841      0.32546198832814
  C   3.04280134677628      1.12760039152963     -0.20811315173774
  N   3.53310698340094      2.36546897870776     -0.42500771042282
  H   2.93068164351168      3.16278398778204     -0.34028714967164
  H   4.50241901962227      2.53734145218830     -0.22197701724303
  N   3.53999680365446     -2.37493907985006      0.44261447582469
  H   4.51544595916263     -2.47046232857665      0.66721533715857
  H   2.94167784697213     -3.05092880357746      0.88068135539450
  C   0.73140381199668     -1.71067441771650     -0.16314331945754
  C   -0.65896601830902     -1.71940188211710     -0.38083925035168
  C   -1.64547516507968     -0.76980270326770     -0.32514870607224
  H   -1.04870184785152     -2.72295402435996     -0.51001529248001
  H   1.11995572489620     -2.72344174902034     -0.13761948913227
  H   0.99684589925698      2.57197125669273     -0.80727759426706
  N   -5.08142207514978      0.04491231090491      0.32342173438774
  H   -5.52712916287416      0.89303548292236      0.62758676222891
  H   -5.65433087142928     -0.76464791463431      0.16002934256716
