30
Coordinates from ORCA-job ./opt_b97-3c_parallel
  N   -5.46380232292783     -0.16689507684949      1.32776845572799
  C   -4.37190489411841     -0.24939619775585      0.93034213959848
  C   -3.06071716468544     -0.27522843218676      0.44420075090465
  C   -2.22471239481142     -1.39836397215841      0.26559299020497
  C   -0.97532033544841     -0.96210622657208     -0.16607697490707
  C   0.05194299822595     -1.86526226270856     -0.59466691882172
  N   1.35368683430963     -1.79918463783321     -0.43797180994250
  C   2.15833991983720     -0.85605544930321      0.00586351243999
  C   2.09467480854030      0.68920459944686     -0.14627560511911
  N   1.21128794150890      1.43722387584177     -0.73946115518335
  C   -0.09192767114048      1.34590544266635     -0.94232286741639
  N   -0.57941562492594      2.27690130585265     -1.79361796300568
  H   -1.57643481104609      2.38369577165891     -1.88720390341776
  H   0.01233044496222      3.05600316307801     -2.02473370978955
  C   -1.03701500222510      0.48336809006976     -0.30685930458146
  C   -2.34087234147910      0.87639237691839      0.05134364920899
  N   -2.87536747851479      2.16527391416898     -0.01828589971363
  H   -3.79779921027625      2.21266242530145      0.39055964930759
  H   -2.28619186667346      2.86742112586165      0.40540667695451
  N   3.19620184992578      1.23545323851845      0.38220417470233
  C   3.92286296682909      0.19856363997366      0.87166485694332
  N   5.06895331523439      0.45718847651249      1.49829658947740
  H   5.35684667055394      1.41394610420207      1.60650002336294
  H   5.63153158985669     -0.27062300608006      1.89651052931523
  C   3.35523879861997     -1.07944701234762      0.64771542431802
  H   3.76459103831093     -2.03770420569221      0.91937845102569
  N   -0.38473477157368     -3.04000617518828     -1.13006486110152
  H   0.31734779894048     -3.69942673922872     -1.41733179690017
  H   -1.27821800874141     -3.06956852406104     -1.58357932273665
  H   -2.49614033226767     -2.41687358030776      0.48712878174439
