30
Coordinates from ORCA-job ./opt_b97-3c_parallel
  N   0.57697531547700      4.57834487198502      0.41562564252769
  C   0.44879755144010      3.43245888991495      0.27524142179438
  C   0.27298512397562      2.02901490094020      0.09331638445610
  C   -1.04458695893581      1.65802016765383      0.10984743101497
  C   -1.74137867730654      0.43626375622091      0.02430086830380
  C   -1.33171204004337     -0.92541402399613      0.31919539704364
  C   -0.14318177818407     -1.55866898688410      0.52145944528323
  C   1.24244550455719     -1.23257002830740      0.32099222911896
  C   2.02865102236412     -2.38813528619478      0.63525113567152
  N   2.53154743470798     -3.36628270428684      1.00350715749075
  C   1.89951949415946     -0.10530485334415     -0.11623415840421
  C   1.50317229834718      1.31778134531337     -0.18532598140509
  C   2.63708292558686      2.01973724017176     -0.52175805979115
  C   3.73111479487548      1.13479544801172     -0.75253132066001
  C   3.32580179209175     -0.14576804322420     -0.50724026687301
  C   4.13019260296269     -1.26314287496681     -0.77415953983939
  N   4.85400517869868     -2.12879189231151     -1.05309915874080
  H   4.71222799217654      1.42227972096876     -1.09295626524284
  H   2.69448919439540      3.09227349050232     -0.60424119482339
  H   -0.26203201484115     -2.59280535413915      0.81570449037806
  C   -2.53255460323448     -1.73848015716782      0.38509347763266
  C   -3.60707531919179     -0.95755558328357      0.09392737168163
  C   -4.95548585261233     -1.32830098007353     -0.01427712928481
  N   -6.08980161964472     -1.55605909506454     -0.12166504178977
  C   -3.13020590404191      0.40834183743462     -0.12232923170919
  N   -3.97166727346899      1.42089359175303     -0.38034056065970
  H   -3.63376775687960      2.30307139033849     -0.71799844955341
  H   -4.95338947731758      1.24178206845272     -0.49794630447398
  H   -2.54612907041080     -2.79773273604592      0.57873464928744
  H   -1.70470444330257      2.50884679332802      0.24037232216412
