27
Coordinates from ORCA-job ./opt_b97-3c_parallel
  N   -2.16689406087729     -3.49722578465194     -0.12127970324030
  C   -1.61374914019915     -2.47752861006834     -0.07762365241969
  C   -0.82169277351232     -1.29054934983229     -0.01820567178232
  C   0.56320892301039     -1.57732651193107      0.05281539896632
  C   1.72705673271188     -0.86176521548974      0.06895302369403
  C   2.10460199249938      0.56237832608688      0.02626326264509
  C   1.37306324914441      1.73726215254117      0.10482537267995
  C   0.03374728019182      2.06407067231197      0.14662350545261
  C   -1.17528308495587      1.35920596861905      0.07328685734785
  C   -2.38951714256970      2.02277954847172      0.07237438360188
  C   -3.39663390946037      1.03623332654250     -0.04458463554080
  N   -2.89904545506290     -0.21644961850796     -0.10743546431961
  C   -1.56074693954890     -0.10377512849220     -0.03464187589012
  N   -4.71639419661853      1.22475409722004     -0.09989400526330
  H   -5.31744029900172      0.42226931657790     -0.16864688603278
  H   -5.12717114148501      2.13577136014517     -0.02779725910042
  H   -2.52915789800372      3.08988731502733      0.13243336282884
  H   -0.13445278608624      3.13206568622221      0.22985307743703
  H   2.00010204993605      2.62203472570064      0.16809072552971
  C   3.51528172264170      0.53420362231975     -0.00088859333386
  N   4.01817130037595     -0.73565501631187      0.04457445890489
  C   2.97343057282706     -1.54846197342769      0.09151818598676
  H   3.09741128400190     -2.62180172338606      0.12010610755514
  N   4.38919044126907      1.58245289380992     -0.01216674263147
  H   4.10008251378925      2.42394562686450     -0.47877547957077
  H   5.33663515843570      1.31263147455469     -0.21856068416730
  H   0.74233690414699     -2.64636642961622      0.08402815426272
