30
Coordinates from ORCA-job ./opt_b97-3c_parallel
  N   4.79801416889481      1.50947490635604      1.06812238676726
  C   3.97355815201139      0.72716095555954      0.82163235286331
  C   2.97598175546040     -0.20453600937781      0.52345435907292
  C   3.07210467301790     -1.58898246629881      0.46911658336790
  N   1.93946222245298     -2.20664640137882      0.05030081235658
  C   1.01882064072230     -1.25273628056289     -0.14330855085341
  C   1.66472683347729      0.10321486767715      0.03331709188744
  N   1.33037206037203      1.27102841566671     -0.39401780784629
  C   0.19834598289358      1.81641648007976     -0.83545379456960
  N   0.38221071198523      2.77594539936639     -1.76708658631981
  H   1.30790939994147      3.13717647972596     -1.92015549498725
  H   -0.40374116226028      3.24714631555680     -2.17342679069425
  C   -1.08049152381846      1.62885878640009     -0.28049002363345
  C   -1.92543642661155      2.72356611559834     -0.01201193820630
  C   -3.03446240751174      2.27412761325038      0.68796539246099
  C   -2.94265785245143      0.87903828859917      0.82056601103004
  N   -3.93725870526084      0.07616597206089      1.38979833224352
  H   -3.58613830835483     -0.59121019185675      2.06183349172345
  H   -4.67534110828064      0.61915248807416      1.80978261688695
  C   -1.73574644531169      0.42587529141461      0.22758320232990
  C   -1.53471320364549     -0.92520795406985     -0.18392971060248
  N   -2.64098124686157     -1.68198369146280     -0.30298834025144
  H   -3.54296733666245     -1.28336548222566     -0.09074601730725
  H   -2.57768626279668     -2.67344858938700     -0.46180259240745
  C   -0.29825164576138     -1.61481489415568     -0.44245130412515
  C   -0.44640762008505     -2.97785525924919     -0.81232929487067
  N   -0.69843364357749     -4.06519493058320     -1.13650916864896
  H   -3.82084931535705      2.88853998623587      1.09990007692386
  H   -1.66870850248029      3.75620342193321     -0.18628189053448
  H   3.94194650185933     -2.17536096954622      0.72543525594384
