33
Coordinates from ORCA-job ./opt_b97-3c_parallel
  N   -2.40650605952519     -3.00574548697849     -1.56741008012228
  C   -1.83109712358250     -2.11607422019204     -1.08480850645057
  C   -1.03348139769885     -1.08825148374731     -0.52550519591996
  C   -1.76431739004848      0.04088900019461     -0.12278505985649
  N   -3.08285009969317     -0.03046912841541      0.02934600790177
  C   -3.47094172518835      1.17455681035212      0.56732261927779
  N   -4.77129028725671      1.33930644193864      0.84076715864782
  H   -5.37996748771177      0.54945770826711      0.71686867925413
  H   -5.09173949504844      2.10933898965832      1.39654171188383
  C   -2.42715996487121      2.08552721103639      0.73545178070145
  C   -1.29670240759092      1.45551618461655      0.20480269700663
  N   -0.21735694755345      2.07640514529970     -0.17755878232078
  C   0.98311710270305      1.70730258448555     -0.59838195520289
  N   1.59060053341361      2.68518226530571     -1.39013424019613
  H   0.94714643550579      3.42112198292544     -1.63752674873701
  H   2.10430924545910      2.32523178775558     -2.17901308796122
  C   1.77311517783037      0.63355087559581     -0.18677423291431
  C   3.17073649484744      0.77783313221906      0.08041098385554
  C   3.61117693830545     -0.34959813807376      0.77711784333585
  C   2.54942139927274     -1.24265411295651      0.90798544857259
  N   2.68818402548666     -2.50404868260616      1.47287597129381
  H   1.87037795132423     -2.83364055647450      1.96244569692445
  H   3.51139712866560     -2.58998615183930      2.04710875838004
  C   1.37648854222068     -0.69769464181492      0.30266211970372
  C   0.29249531650968     -1.49037737176900     -0.11928924857966
  N   0.46935599030454     -2.84253892603764     -0.09105338919089
  H   1.40382021581280     -3.21072020101472     -0.13402579337990
  H   -0.26537822845273     -3.43574796700210     -0.43614932331520
  H   4.61217755478406     -0.50383366465642      1.15275341970976
  N   3.97022802061492      1.85630293388504     -0.21584244125989
  H   3.46336918156449      2.70298661395761     -0.43661083892551
  H   4.72840178640555      2.00303746361850      0.43070567965402
  H   -2.49221202412054      3.12143820976475      1.02002252223428
