30
Coordinates from ORCA-job ./opt_b97-3c_parallel
  N   -0.11974751184234     -4.45882731799586     -1.33492296104848
  C   -0.18291723437015     -3.36115258005166     -0.95867288956163
  C   -0.27034192673835     -2.02335414751608     -0.47912588895924
  C   -1.53699588697133     -1.54418558870174     -0.38747325771314
  C   -2.04604690842118     -0.27511786083736      0.00638044381138
  C   -1.55093277085662      1.02713430600172     -0.15303303362344
  C   -0.34784130039977      1.58497224609774     -0.53819042883094
  C   0.98022204189504      1.11881975715894     -0.48501465463133
  C   1.88186117951480      2.16081130669022     -0.86877437889649
  N   2.49979213141049      3.05855314286306     -1.26742465612752
  C   1.53119364425254     -0.10473252396503     -0.08811612362008
  C   1.00993202627256     -1.43699830102182     -0.07618859478610
  C   2.03492243131763     -2.27724257639970      0.33793550645671
  C   3.19989299040113     -1.52884846621668      0.65362885658376
  C   2.93374884727679     -0.21202021450685      0.38105694458317
  C   3.83321548361697      0.82295265633890      0.67408605060070
  N   4.62066669172156      1.62567486075806      0.97036231371592
  H   4.12556474297216     -1.91749527569431      1.04214141188183
  H   1.96010084489950     -3.35192013504536      0.39308514931775
  H   -0.40186779848315      2.62396808819150     -0.83565850560469
  C   -2.72819619315325      1.89737465000078      0.16046971746304
  N   -3.81419795297698      1.21067665193818      0.46756781074578
  C   -3.42133771660652     -0.09397888262471      0.36715302677503
  N   -4.31051644317616     -1.05201921357724      0.59293945604929
  H   -4.04600798069250     -2.01891358892870      0.63708840922917
  H   -5.25451647780382     -0.79871034237044      0.82652317352433
  N   -2.71018564166083      3.22322315049011      0.18181542609187
  H   -3.54316863589938      3.71867634191801      0.44888559255396
  H   -1.86484145531448      3.74723186447593      0.05372101908593
  H   -2.29940691408436     -2.25674713886959     -0.68577122976657
