33
Coordinates from ORCA-job ./opt_b97-3c_parallel
  N   -3.64494770468521     -3.25862928664639     -0.82374011726713
  C   -3.15561099557460     -2.23885686990949     -0.53943885670273
  C   -2.59694501750465     -1.01169521736126     -0.19745415999868
  C   -3.27753352848967      0.07515366169390      0.41261407931426
  N   -2.46833056440208      1.12206001437819      0.64683123377590
  C   -1.23377439695495      0.77214672129970      0.23020043100484
  C   -1.23571353867953     -0.63227749034597     -0.28111130834225
  C   -0.28413702457993     -1.46252610082135     -0.82744007101677
  C   1.10964691738179     -1.56559904976035     -0.69705516665103
  N   1.64335198175593     -2.66198368749592     -1.29829383839910
  H   1.03781758044342     -3.40834762455637     -1.58957376500521
  H   2.60766532617153     -2.89910980630169     -1.10993823670934
  C   2.01180604902491     -0.72706060354617      0.01684237021209
  C   2.04846565989158      0.73108798634209      0.10920844911929
  C   3.33531426545114      1.07332265304323      0.58914421317019
  C   4.05163304263794     -0.08296584554541      0.85704525528711
  C   3.26849801820918     -1.18160700798115      0.48652689575488
  N   3.69093586864263     -2.52507081930829      0.54968579486359
  H   4.62395801874713     -2.59893868653408      0.92577165519894
  H   3.07426205493885     -3.10223163864341      1.10595145744673
  H   5.02196149488807     -0.13539461906231      1.32795103072284
  H   3.64497762479830      2.06520539003932      0.87663290309842
  C   1.12521127262032      1.76618836300554     -0.16546951617596
  N   1.66368870293855      2.94517855540916     -0.55230644640531
  H   1.14440251689616      3.80457404369484     -0.48925457907547
  H   2.64623042695042      2.99727086404171     -0.73959396228517
  C   -0.29089026285676      1.78882788141703      0.07838900824919
  C   -0.83147364951571      3.09571982153591      0.20374833700672
  N   -1.15150674727242      4.21263441407377      0.25277139886876
  H   -0.72456408635341     -2.31437390400924     -1.33685648975195
  N   -4.56491558206231      0.10803151455105      0.76012147106689
  H   -4.94210565811945      0.95053378300599      1.15473798048894
  H   -5.18379732183622     -0.64881151160164      0.53520654943600
