31
Coordinates from ORCA-job ./opt_b97-3c_parallel
  N   -5.27219574608684     -0.00015165236888      0.27258339805957
  C   -3.93812877809539      0.00008588454519      0.12408454641953
  N   -3.24497490694568      1.15418161922521      0.03645867055549
  C   -1.95963796737845      0.75207419629209     -0.09832884393495
  C   -1.95985606851263     -0.75174450212585     -0.10134978955590
  N   -3.24529353901468     -1.15394311722664      0.03114294161462
  C   -0.98808149188402     -1.69585610931887     -0.32491770628860
  C   0.42054612740226     -1.72001776365389     -0.36518906735125
  N   0.90454709406720     -2.98718656246147     -0.64143632560103
  H   0.23772036209622     -3.63318396145723     -1.02418976410508
  H   1.81993244696280     -3.04897661394082     -1.05743659974875
  C   1.38720789084624     -0.74194833178228     -0.06200490753226
  C   2.73394773634355     -1.07580052029330      0.24227637920842
  N   3.50991288048696     -0.00008094285206      0.44046110359973
  C   2.73469939176332      1.07565006655084      0.24007937562259
  N   3.32458384839040      2.32577761791356      0.35762798597599
  H   4.22818528015209      2.24077985681711      0.79906124959388
  H   2.74999176014753      3.01839617924640      0.81438097063142
  C   1.38760908190135      0.74185994902068     -0.06348853385613
  C   0.42068664587027      1.72012067298565     -0.36435890756537
  N   0.90437602153657      2.98732972256045     -0.64168262377387
  H   1.81833792558607      3.04843277319881     -1.06091149519680
  H   0.23664650002728      3.63305946903750     -1.02335697253248
  C   -0.98792764827838      1.69653256106155     -0.32009072259271
  H   -1.43717030177422      2.67786916996032     -0.42884723420311
  N   3.32338483015335     -2.32602667748120      0.36166451045940
  H   4.22729571781838     -2.24061657408852      0.80238092467933
  H   2.74880970093290     -3.01749071151550      0.82016905540921
  H   -1.43757299968412     -2.67664877526136     -0.43745906428289
  H   -5.72290551002394      0.86243963158304      0.51574840653372
  H   -5.72303967700203     -0.86382487677120      0.51162211765434
