26
Coordinates from ORCA-job ./opt_b97-3c_parallel
  N   5.78949720314214      0.39126909581827      0.23504735493519
  C   4.63361723386680      0.42941925424490      0.10606447163928
  C   3.24108450071613      0.38411770818036     -0.03227069975562
  C   2.36041134746294      1.43652953035177     -0.23260845760655
  C   1.03747381427213      0.93864264090559     -0.26603658861947
  C   -0.01887454275140      1.81126184192899     -0.46068789222419
  N   -1.31516639373153      1.73071961199520     -0.21306540052650
  C   -2.16158965371274      0.77186422265054     -0.00496870218191
  N   -3.37847159020756      1.07567024000769      0.50189275701559
  C   -4.03496898948319     -0.08644348777482      0.62326520153147
  N   -5.27505253563831     -0.10542054879444      1.10825261910269
  H   -5.80685122455406     -0.95294928469751      1.17061776447138
  H   -5.71086638154067      0.76461262224021      1.36137017372752
  C   -3.29153909152120     -1.23025737245883      0.19314447064964
  C   -2.06990286290232     -0.77140533237074     -0.21422482475459
  N   -1.10086066004270     -1.60478756412443     -0.59980960585790
  C   0.19757872560266     -1.51172699141406     -0.55496639268169
  C   1.11469528863206     -0.52115581976747     -0.15185348655405
  C   2.48011824066367     -0.83372577191020     -0.00517603706304
  N   3.04366125194162     -2.06601240990291      0.06700344834186
  H   4.02593253712296     -2.11352321075423      0.27818046303057
  H   2.50009970460970     -2.82026053211347      0.44399009579331
  H   0.68200216999477     -2.42272006708426     -0.91024195310623
  H   -3.60735798451534     -2.26034367963445      0.20222482485968
  H   0.28083830804945      2.80812586651073     -0.77811427105066
  H   2.63261094132514      2.47706896796742     -0.29892807861623
