26
Coordinates from ORCA-job ./opt_b97-3c_parallel
  N   -3.75157389199940     -2.69868784989361      0.10012136158743
  C   -3.14222446747034     -1.70587221238292      0.07193075209716
  C   -2.51270819804699     -0.46294110206581      0.06565803027233
  C   -3.19683857511877      0.76430652167722      0.29880059497008
  N   -4.49681463726392      0.84480447140569      0.56441292255958
  H   -4.94814366092544      1.72961042497100      0.70654652972790
  H   -5.06254763353351      0.01349899574449      0.60460249046348
  C   -2.29450672774012      1.84533763578465      0.21016531137452
  C   -1.02443323714624      1.37555564454614     -0.06955079215829
  N   -0.00179614032507      2.20913908324162     -0.10318788594576
  C   1.30327583349694      2.04556063298817     -0.06293720490104
  C   2.16178738846005      0.96892826084690      0.13440960746984
  C   3.54516829427045      1.17078293500903      0.26941141832028
  N   4.26266528140676      0.03544049780967      0.28181389903934
  C   3.37325559950419     -0.96305477214611      0.10696075638215
  N   3.79694220576609     -2.24777321764242      0.03554431492304
  H   4.75915594161284     -2.39656974967405      0.28742192053920
  H   3.16626038214464     -2.98352317257972      0.29493102466824
  C   2.02739455173510     -0.48521802286221     -0.01084189233667
  C   0.99553381398761     -1.27769239943847     -0.46089394865969
  N   -0.32195563016114     -1.14681847058065     -0.43976773686167
  C   -1.15765370247137     -0.18234718585129     -0.19624209237144
  H   1.29796551594041     -2.24384701551351     -0.86272789684888
  H   4.03552816801795      2.12981047874618      0.35782878434128
  H   1.83449378419829      2.99219788288794     -0.15653770560151
  H   -2.53222944313948      2.88453100907341      0.36479083985127
