33
Coordinates from ORCA-job ./opt_b97-3c_parallel
  N   -5.86963646274922     -1.00043876435422     -1.63470688954991
  C   -4.80538549514614     -0.86874017665910     -1.18163775410735
  C   -3.54704964976553     -0.64556657472476     -0.61294569122826
  C   -2.41487340481972     -1.47741100433116     -0.67307147126461
  C   -1.33505972999746     -0.84959624727574     -0.04937817003548
  C   -1.82544376694533      0.43439708471004      0.44423175683604
  C   -1.10873611540969      1.48072823189552      1.05351388648827
  N   0.06602505339037      1.96084269513589      0.68802191082847
  C   1.12767140120913      1.52275211295951      0.09634650508685
  N   2.00217713928776      2.40672939587885     -0.44690380182174
  C   3.11108815170286      1.71881130437269     -0.69910557225697
  N   4.17756656723994      2.26249461351537     -1.27053866690995
  H   4.14847634703396      3.22446229889994     -1.55902665098024
  H   5.00331780570493      1.71863630030728     -1.45064697322838
  C   3.02454970185664      0.32086535393819     -0.31344259361761
  C   4.05101856912997     -0.58594963673000     -0.58085369826315
  N   4.97091251309203     -1.23801168505215     -0.87099834712813
  C   1.72187616105181      0.12669849637193      0.11763306767916
  C   1.15770592975316     -1.08868264671683      0.55675907005989
  C   2.07152176708132     -2.04587506913137      1.05459501438325
  N   2.76531185512256     -2.85931128480379      1.51494397822160
  C   -0.16694055432855     -1.57213930034972      0.32873790482594
  N   -0.32140936788196     -2.91150273847112      0.41827013821842
  H   -1.23969013816002     -3.29845007885848      0.52421987234442
  H   0.46415341569773     -3.51656948947307      0.58678373065420
  N   -1.75699295663145      2.25707849378870      1.97282343104319
  H   -2.43029731419686      1.81653294143173      2.57575527463623
  H   -1.22624455982415      3.01838123289834      2.36283025005307
  C   -3.20480930822083      0.51909239460946      0.11705642568140
  N   -4.08274329849855      1.52628423840353      0.41050734405428
  H   -3.67584948566409      2.41878489345097      0.64077850023428
  H   -4.88244440120384      1.59070236521810     -0.19939627319179
  H   -2.39554799751034     -2.43864021235418     -1.15946478904439
