27
Coordinates from ORCA-job ./opt_b97-3c_parallel
  N   -4.15894274209118     -2.26824227567662      0.71755240957223
  C   -3.41282752587422     -1.40337256739060      0.48825193351040
  C   -2.62359521574860     -0.28465908308254      0.22703591219284
  C   -3.16420733424897      1.02660494148205      0.04069473739986
  C   -2.13426125672398      1.90871057597048     -0.31548433504515
  C   -0.91822617737933      1.22648823378453     -0.31790079430758
  C   -1.24766391101688     -0.24930867722428     -0.05732972865267
  N   -0.57497829887557     -1.36915636709003     -0.15219411772154
  C   0.69230045577456     -1.68805308484330     -0.34201411564846
  C   1.89918817656834     -1.03402746251676     -0.18187614800883
  C   3.11587437875037     -1.73928778986044     -0.19195846877097
  N   4.18295824507122     -0.96038294501842      0.03684904857586
  C   3.71034735044885      0.29794918041750      0.17446749070041
  N   4.57918089110457      1.33206329629084      0.36212313055167
  H   4.26263262158669      2.10888146403030      0.91494989749775
  H   5.51710442124721      1.03708595417939      0.57780420114602
  C   2.29330339993470      0.36960984932301      0.02435252429958
  C   1.62023874604785      1.55511578452897     -0.16367953147226
  C   0.28860793586732      1.90729699746977     -0.37455695495864
  H   0.15394741775717      2.97421312806850     -0.51796129142708
  H   2.27148707976070      2.42460524674301     -0.16420675426548
  H   3.22886297810115     -2.80600397489999     -0.32024792644463
  H   0.80915394648280     -2.73821468788160     -0.60809824571483
  H   -2.24542877088602      2.97393334221996     -0.44463825500212
  N   -4.45594273534474      1.31929705364581      0.20495885757491
  H   -4.81867841213623      2.22590062670807     -0.02395329385544
  H   -5.11350375658981      0.59598271371761      0.44147162657228
