29
Coordinates from ORCA-job ./opt_b97-3c_parallel
  N   1.33362065908755      3.49647682429579      0.60523120261891
  C   1.02893292509700      2.38766345487745      0.43151330795916
  C   0.50466417659557      1.07842520074241      0.24978643608610
  C   1.50738308921955      0.11676179843210      0.06762581745484
  C   1.51741080310619     -1.41473380293102      0.10636199746070
  N   0.65717762444726     -2.32284592528866      0.52926612140131
  C   -0.63894340920567     -2.28485351426939      0.73934318394673
  C   -1.67566000867819     -1.43446977737035      0.36717435218192
  C   -2.97997974962454     -1.98653116630045      0.33117170179765
  C   -3.83895105364946     -1.10128377284490     -0.28640666695036
  C   -3.12151689104096      0.06983691322412     -0.59209984444298
  N   -3.70896932022098      1.20555393558905     -1.15675448992079
  H   -3.16152074999760      1.62439975823783     -1.89465480385242
  H   -4.64543569568986      1.02952516769598     -1.48543312130843
  C   -1.77293454479369     -0.07256139412398     -0.17018393159566
  C   -0.92375179710314      1.03884414397796      0.07510561393488
  N   -1.52348571184328      2.24739601766912      0.11869510570469
  H   -2.52738951751742      2.31456873762805      0.07081898581747
  H   -0.98688799946422      3.08844576273129      0.24092293745244
  H   -4.88026634684303     -1.26902628244830     -0.51883362878030
  H   -3.21699685115837     -2.99091990918326      0.64483971770220
  H   -1.00044156682043     -3.19619731040004      1.21397970839856
  C   2.81832033939148     -1.75270835851736     -0.23825579090114
  C   3.51975901759379     -0.54378327143817     -0.37716003994129
  N   2.74827999753486      0.55756031814005     -0.16410317523144
  N   4.80988832156608     -0.37239604075781     -0.67405870588633
  H   5.17612656335012      0.56217023130443     -0.71783887959298
  H   5.41146099602504     -1.14407019624986     -0.88929170907874
  H   3.20932155063737     -2.75515424512285     -0.26385528733425
