28
Coordinates from ORCA-job ./opt_b97-3c_parallel
  N   -5.69972621075883     -0.59165141753951      0.82442670832812
  C   -4.58062171674818     -0.44293068236080      0.54826080652972
  C   -3.22955091314549     -0.26971728204746      0.20456659007387
  C   -2.65890486585234      0.89375074816047     -0.32977576704933
  C   -1.27813643864334      0.68419174678666     -0.45231565482418
  C   -0.39717351071628      1.69671769893125     -0.91001596915689
  N   0.70628378792948      2.09518259664346     -0.29206050754516
  C   1.64067973383376      1.52487382068594      0.38293510618790
  N   2.52667168887761      2.30179040114982      1.08322576115328
  C   3.53572495795647      1.49671129613838      1.37578481887551
  C   3.38706150409500      0.16259845620971      0.90150559732678
  C   2.13476116020325      0.08221434916468      0.34283176615810
  C   1.54308717475252     -1.08578787631601     -0.19788655015243
  C   2.46930903009079     -2.11246981803394     -0.50139356544332
  N   3.20313820333002     -2.97677832789008     -0.76268101795741
  C   0.18006616401171     -1.47091991509394     -0.25728903628474
  N   -0.07097884161209     -2.77867451621401     -0.49387625087285
  H   0.67791247276502     -3.43979576907353     -0.60998870067594
  H   -0.98662759021449     -3.05699787845659     -0.79199220769585
  C   -0.98748132724928     -0.67122352563818     -0.02360785025526
  C   -2.20945180917408     -1.23451958696898      0.35546562969753
  H   -2.35996857271252     -2.22835086784696      0.74334592783104
  H   4.08245763165017     -0.64757904364110      1.04330908418121
  H   4.37323640137923      1.86376239668640      1.95464883773396
  N   -0.78198811938704      2.47430551553869     -1.93385662361186
  H   -0.29709237312607      3.33700821849560     -2.11365321918017
  H   -1.58335423516734      2.23029359857850     -2.48550604642435
  H   -3.17380841896732      1.82384258265143     -0.50496413284740
