25
Coordinates from ORCA-job ./opt_b97-3c_parallel
  N   -5.90182410114922     -0.31087708252459     -0.26158867634257
  C   -4.75088956493764     -0.17398547207132     -0.18952988807628
  C   -3.35598604583118     -0.01032736680757     -0.10601487153951
  C   -2.39887305957789     -1.03777625801240     -0.27583779096684
  C   -1.12008028683637     -0.50509757601262     -0.11612363259112
  C   -1.30571522509251      0.94192917098321      0.16060998029164
  C   -0.41491676837775      1.97863745580269      0.35937929621274
  N   0.86198038004700      2.14502018192423      0.05436678452482
  C   1.91368314153232      1.40291315168048     -0.08661325428436
  C   3.16303959602866      2.00378989784407     -0.41091340556573
  C   4.15364069514267      1.07208659932454     -0.22935072616131
  C   3.58903185263123     -0.18276314837733      0.13905833153633
  C   2.21585300143884     -0.07805635564207      0.18476304323297
  C   1.35480516831392     -1.19803541463071      0.16476159257102
  C   2.03124757585238     -2.45304318916302      0.26247702665274
  N   2.57704645772929     -3.47322039045750      0.35216794188271
  C   -0.01641135683516     -1.35173005755054     -0.03059657599384
  H   -0.30104197344244     -2.39287250259861     -0.12511907216555
  H   4.14886584223115     -1.09347503936109      0.27301624489598
  H   5.21268184256624      1.25238174360431     -0.33785091411449
  H   3.27284689187540      3.05372622393870     -0.62128523337194
  H   -0.87324540246223      2.89685727345429      0.72125940918101
  C   -2.69298034665881      1.18294735201989      0.18509375887645
  H   -3.15929067519118      2.13916066433299      0.35337483538062
  H   -2.62713305799665     -2.07660071389955     -0.44881962436663
