26
Coordinates from ORCA-job ./opt_b97-3c_parallel
  N   -2.94027948594500     -3.49425415594378      0.08928589591048
  C   -2.41977075133620     -2.45404717101731      0.07109499396802
  C   -1.90899247929653     -1.15370215313806      0.05279516697408
  C   -2.73230628715761      0.00273819904260      0.08171836851365
  N   -4.05599907902087      0.00405064724147      0.12901556287130
  H   -4.56969312188483      0.86895915217001      0.14500724643813
  H   -4.57136144449371     -0.85983349158399      0.14661281403242
  C   -1.90678995814907      1.15755129656787      0.05065636368713
  C   -2.41506954016658      2.45890629938583      0.06657060347508
  N   -2.93356420627864      3.50014977045856      0.08291994915730
  C   -0.55502706311364      0.77415370020760      0.00400959612434
  N   0.36242988903045      1.71242336479261     -0.01370133120045
  C   1.68316803183906      1.70031549261025      0.02170018660735
  C   2.67307786908580      0.73621978895225      0.15037060038456
  C   4.02255319480584      1.12835994242159      0.24258600634021
  C   4.83335293752437     -0.00430857870276      0.31241293655991
  C   4.02040382741352     -1.13555312213827      0.24452080223676
  C   2.67167395595825     -0.74101185433039      0.15163209332370
  C   1.67990908232941     -1.70342277121214      0.02464634745267
  N   0.35914820143235     -1.71304015335245     -0.01066007966852
  C   -0.55650560289291     -0.77298046235360      0.00541655701208
  H   2.08452960500209     -2.71254647089501     -0.03305983155596
  H   4.35409042220759     -2.16163660602033      0.25666981026694
  H   5.90946350687120     -0.00526776968029      0.38875486772007
  H   4.35818473936375      2.15382956313524      0.25297419814966
  H   2.08973432187229      2.70855755678306     -0.03771622168081
