25
Coordinates from ORCA-job ./opt_b97-3c_parallel
  N   -3.42559425555367     -1.17600879534940      0.83121849642433
  C   -2.64554542327497     -0.09979286590511      0.51810489574619
  C   -3.17284743397826      1.24133495600092      0.47791495458098
  C   -2.21289450967777      2.06209600958172     -0.02335190674185
  C   -1.00359200133305      1.30005391269635     -0.22354511360832
  C   0.15416479936051      1.97076949751251     -0.54525792225289
  N   1.44178580441918      1.70913203892574     -0.29551478361516
  C   2.11327762243466      0.65304392630738     -0.00411008632622
  N   3.41136045405356      0.80747463534826      0.45597857295140
  C   3.84684761932111     -0.41173666299457      0.70291799589356
  C   2.91460734735453     -1.45320877202475      0.41853348702121
  C   1.77044187702212     -0.84861588453896     -0.03096384308849
  N   0.67758497080400     -1.51807142281552     -0.40160207035474
  C   -0.59148894485013     -1.25001427058730     -0.36415662634659
  N   -1.39065352703773     -2.30511048136292     -0.77565080349865
  H   -0.86325002034588     -3.05599703286543     -1.19187086672699
  H   -2.24197117980708     -2.06899798276089     -1.25932280584507
  C   -1.31156255053008     -0.08617520570287      0.09402856687400
  H   3.06609139921916     -2.51399106023768      0.53189167047893
  H   4.85155159117266     -0.56001528700157      1.08032086041070
  H   0.00597388206586      2.98371376086798     -0.91061436963848
  H   -2.28007264114285      3.13026507356447     -0.15547740210068
  H   -4.17618388890517      1.51515285460845      0.76845253440899
  H   -2.95515585226926     -2.04248562225274      1.03119865315487
  H   -4.23553687722154     -0.99690956391418      1.39833677749912
