34
Coordinates from ORCA-job ./opt_b97-3c_parallel
  N   -0.85398317292455     -4.37031506794293     -0.45365378500404
  C   -0.57141416109812     -3.25121314960239     -0.30751236080450
  C   -0.23826457710818     -1.88253594549481     -0.12392182091982
  C   1.12494749963442     -1.67682452179984      0.09657238558495
  C   1.99599988527916     -0.61428820706392      0.24988871429235
  C   1.93843216037166      0.81990653996677     -0.10706703323311
  C   0.86065224206863      1.62435991705094     -0.41111569266486
  N   1.10907492256888      2.87531960377399     -0.97247665082953
  H   1.85754223700785      2.90487475358668     -1.64640176935065
  H   0.28892499867269      3.35555063929986     -1.30248570805976
  C   -0.52957810237603      1.46973218133427     -0.08603547915990
  C   -1.42562694650092      0.46776105397383      0.08860100765278
  C   -1.36170192264455     -1.01451145951373     -0.05325175676977
  C   -2.65944497730099     -1.47885192390382     -0.02109288415612
  C   -3.55758505300291     -0.39423820872725      0.19992331486007
  C   -2.82361152868245      0.79026425103138      0.29525545469494
  C   -3.37060681292388      2.06157207036683      0.41119384933880
  N   -3.84444296122920      3.12493449721341      0.50471116180778
  N   -4.88892503798660     -0.51400031951399      0.32465601385854
  H   -5.34406413084851     -1.37266478015972      0.07791416985117
  H   -5.46220005158055      0.30944483236527      0.38012224229445
  H   -2.95344217521338     -2.51328963493399     -0.09108166144382
  H   -1.00469344072596      2.44537511453131     -0.01526927572396
  C   3.29427519661089      1.30333035232579     -0.03491357916842
  C   4.12989801909831      0.26965892757912      0.36485255820687
  C   3.36358939701695     -0.88860908835868      0.54082330891513
  N   3.88007481594495     -2.11106252058222      0.87385922073315
  H   3.29373770161821     -2.72619300050582      1.41026463262833
  H   4.83438687298927     -2.11596444937350      1.18766052579385
  H   5.19007590507732      0.35926181384489      0.55076400838559
  N   3.72385536211881      2.59442207912782     -0.26039281472301
  H   3.05206929903028      3.31197990919080     -0.03043241925621
  H   4.63116295277024      2.79164443008506      0.13062492166960
  H   1.64252821126981     -2.62870926537229      0.14729628410064
