28
Coordinates from ORCA-job ./opt_b97-3c_parallel
  N   -2.87879751696223     -3.08875554590255      0.45969364168954
  C   -2.16860050659218     -2.18362946785362      0.28550965691339
  C   -1.31284546775293     -1.07391011132971      0.05955707705533
  C   -2.00152717541421      0.18595848840956     -0.11886991584172
  C   -1.48642139312972      1.58174827875653     -0.19988736668552
  N   -0.38257808138556      2.16566949784956      0.09842736076784
  C   0.85547761680511      1.76726249684262      0.45649616296353
  C   1.58197022828999      0.65377225688236      0.14696553124562
  C   3.05887974386306      0.70200641465912      0.19100713784931
  C   3.55071829046918     -0.52127218035913     -0.16781268626084
  C   2.43766005642658     -1.38011210831463     -0.42502323017784
  N   2.58754865033573     -2.66718524740719     -0.80291795744863
  H   3.44566827031102     -3.14376656447522     -0.59290682432949
  H   1.77943356570699     -3.25270901571541     -0.91336637147456
  C   1.21724445293607     -0.69236913032722     -0.24861306178088
  C   0.01187793676583     -1.40385561152806     -0.09141927124415
  H   0.16051257155203     -2.47815756879656     -0.03687691853483
  H   4.58866330751284     -0.78917284881756     -0.29070785987100
  N   3.77726633833040      1.80763788974654      0.53704373638021
  H   4.76148326217013      1.78355841249028      0.33474476341735
  H   3.36164732086385      2.70456852091644      0.36140691973939
  H   1.39612018921135      2.57559135205858      0.94080586102711
  C   -2.62869372806060      2.43206936060317     -0.60060746058194
  C   -3.72230835684848      1.65885951618288     -0.66575997652262
  C   -3.33642265522877      0.27713292112599     -0.37568612529408
  H   -4.01666952814490     -0.56037070349687     -0.39915692158734
  H   -4.73060306650009      1.97313588959937     -0.88692026998044
  H   -2.53814310033023      3.49820329010105     -0.72242238383300
