27
Coordinates from ORCA-job ./opt_b97-3c_parallel
  N   4.50211989467229      1.61011615577196     -0.03532174364682
  C   3.72156544273134      0.74743675528338     -0.06729422933511
  C   2.78146128468592     -0.28616509918603     -0.09844625731232
  C   3.02970607318098     -1.65005984227022     -0.37805035077050
  C   1.87177166396819     -2.40317215524654     -0.28561521139323
  C   0.79941317260384     -1.55788613692870      0.04255920706172
  N   -0.41245662573465     -1.99123130503193      0.22014046369032
  C   -1.62594669792363     -1.45546372197670      0.25061477869718
  N   -2.57204759588866     -2.30832111128206      0.71751600008496
  H   -2.28881946601468     -3.23004377705789      0.99901028090673
  H   -3.47187506702156     -1.96406218645567      0.99255488823841
  C   -2.08450436837730     -0.22572332503281     -0.29438166974659
  C   -3.34615884795577     -0.08014059569068     -0.89717724347149
  C   -3.54936275737390      1.26856765649689     -1.19856812329662
  C   -2.45420949338052      1.99882576416897     -0.72804346151916
  C   -1.51382867781683      1.10775575951640     -0.18544939846455
  C   -0.34307783631759      1.53278394774111      0.49898630060657
  N   0.87333455383197      1.00715762967372      0.47474387324697
  C   1.40258500842474     -0.13336082050754      0.16771716187948
  N   -0.39508056697428      2.71903007794958      1.14718317550805
  H   -1.27111072176431      3.16896473413573      1.32967291976644
  H   0.46256496442167      3.14525478529365      1.45125843939110
  H   -2.31205916623444      3.06386356550418     -0.82628615613915
  H   -4.40554178375848      1.67764181219368     -1.71234958750593
  H   -4.00829522543366     -0.89476004926038     -1.14567169984336
  H   1.78004738440450     -3.46593992141424     -0.42920417780896
  H   4.00699906824531     -2.03815160958809     -0.62242996812372
