27
Coordinates from ORCA-job ./opt_b97-3c_parallel
  N   -2.29412433324107     -3.06092889840009     -0.54730723700355
  C   -1.65771466304387     -2.10912557122553     -0.34206131231100
  C   -0.82963083718232     -0.97561710802755     -0.11541059235167
  C   -1.59143034876552      0.20514819113718      0.10032207273377
  C   -1.27798381047247      1.66635543914381     -0.11240349065110
  C   -0.14171770448157      2.34621711163247     -0.46551174439717
  C   1.21945530759737      2.03099077582372     -0.53191683675638
  C   1.97990839484653      0.93337987137750     -0.21004848305190
  C   3.39617803799978      1.10741189427569     -0.06967758611302
  C   3.93921511649662     -0.04427208585697      0.43278667794693
  C   2.91114218986595     -1.01470120465821      0.55150623786345
  C   1.69226398038911     -0.47020419730410      0.15733476414067
  C   0.54972258298828     -1.30005988017775     -0.05246213532825
  N   0.85422224968013     -2.63439115814736     -0.11730878724409
  H   0.12119930814862     -3.29768665607051     -0.30162768892077
  H   1.75599659148590     -2.87970395872164     -0.48277638539910
  H   3.05774805366623     -2.01180676637484      0.93345433722001
  H   4.97047752742314     -0.19672513181421      0.71197561527398
  H   3.90434882173219      2.04180299801074     -0.24766707633069
  H   1.82694355383599      2.89072489392718     -0.79443945553862
  H   -0.33304957546365      3.39424719674264     -0.67173090098851
  C   -2.50256807003776      2.36347449975735      0.04726078769010
  C   -3.49102647246055      1.45862418758519      0.36352090640096
  C   -2.95080683299553      0.15160591288501      0.36897507970165
  H   -3.51212913601711     -0.74866530021699      0.55359920055443
  H   -4.52184899299021      1.69815309545659      0.57835240977441
  H   -2.60314273680410      3.43381419454081     -0.03273171571476
