23
Coordinates from ORCA-job ./opt_b97-3c_parallel
  N   -3.40576965535243     -1.80296517277923      0.19782622594023
  C   -2.78528712367856     -0.58728444801744      0.16222835973407
  C   -3.46247747933738      0.65987996157786      0.20132757756907
  C   -2.53911252240829      1.66552283394650      0.02871353624114
  C   -1.23649988473574      1.10943537645329     -0.06462434806950
  C   -0.14332915781174      1.92406158135860     -0.25209844969098
  N   1.16007165777006      1.74407885791182     -0.05748297667640
  C   1.97158525182863      0.73817210774560     -0.04099350435914
  C   3.31817390490159      0.85414861479237      0.37171272243959
  C   3.85254498551911     -0.40957245298714      0.32356280949327
  N   2.96781294871432     -1.39545178097762     -0.02797959055632
  C   1.80105184704598     -0.80882649867883     -0.27121142949890
  N   0.74367939920311     -1.55411701189242     -0.49837294309351
  C   -0.55356396234363     -1.38039752247906     -0.44698622460958
  C   -1.39981990312512     -0.35837794486847     -0.00945729353916
  H   -1.08801099866345     -2.26312527378244     -0.80077504352659
  H   4.88195835473980     -0.68063854647064      0.51389878298889
  H   3.81514879448695      1.78282811774457      0.59485446954282
  H   -0.38777551053290      2.96164603028795     -0.46927804119086
  H   -2.74870036784562      2.72334924142173      0.00684257676859
  H   -4.53026648031980      0.78224975264439      0.30521806032337
  H   -2.87385844664419     -2.58756161042234      0.53010755587607
  H   -4.36230876411082     -1.81350375632920      0.50415111719392
