29
Coordinates from ORCA-job ./opt_b97-3c_parallel
  N   -5.05790525580886     -0.58960513638453     -0.19244234273407
  C   -4.00149860271582     -0.11880194758057     -0.07286128627115
  C   -2.79816952544852      0.56403578372548      0.14180985585303
  C   -2.75855183263872      1.85035313303860      0.77077251175578
  N   -1.54389517274498      2.29359746282863      0.97291808544473
  C   -0.68456452989413      1.33533947962690      0.45980900545933
  C   -1.46780229166413      0.15288210805664     -0.01608397599454
  C   -1.05879149557667     -1.13512997002360     -0.41693955659080
  C   -2.02959736176224     -1.98561891295049     -1.01417925423087
  N   -2.73084031812727     -2.73717706649935     -1.55518621862146
  C   0.15250640710580     -1.80506384033101     -0.18595680087167
  C   1.44269882502869     -1.41752262205564      0.09220100828739
  C   2.18714445564620     -0.17988166011719     -0.16341280984574
  C   3.54158527233392     -0.57829964857767     -0.15804958975272
  N   3.71345418981833     -1.86873848266168      0.13788792884500
  C   2.47462704756220     -2.39356880362613      0.27483514290631
  N   2.31794087950327     -3.71476019501230      0.50302564110394
  H   1.50655991651006     -4.04170890367176      0.99425548778107
  H   3.16266691365882     -4.23503701838966      0.66563961129115
  H   4.40440076782020      0.06727854432623     -0.23647046601828
  C   1.79855873641536      1.14543705989083     -0.29701823679930
  N   2.62246991060343      2.00835513419455     -0.91556793011238
  H   2.52851879736557      3.00231472236138     -0.78574371356554
  H   3.45464219109300      1.67903096370521     -1.36808399673325
  C   0.61097668891681      1.76102344647783      0.30705080461854
  C   0.85404767229359      3.09978430187610      0.73046839117311
  N   1.22521029250931      4.16949162805255      0.99114386707624
  H   0.04187044568046     -2.87929161904707     -0.29376100104796
  H   -3.62707777268300      2.41505706106740      1.07849803759537
