25
Coordinates from ORCA-job ./opt_b97-3c_parallel
  N   4.71106822579946      0.10638572023279     -0.00812219129964
  C   3.37336939688250     -0.00520601452119     -0.00357973972194
  N   2.60494187447873      1.10100033786364     -0.00367341633422
  C   1.31835222419123      0.67599992577931     -0.00269009995571
  C   0.33527768493558      1.65044110477612     -0.00119588664696
  C   -1.05635917616983      1.67117447498760      0.00025704877465
  C   -2.08080272569657      0.74496839077807      0.00085435756374
  C   -3.43001648408639      1.17402775533662      0.00207866126787
  C   -4.26337329993239      0.06698558445715      0.00229562153038
  C   -3.47248648458487     -1.09345742951155      0.00124839510862
  C   -2.11943993972312     -0.74129925221174      0.00033849697378
  C   -1.12971662000314     -1.72573897770125     -0.00060722909571
  C   0.24639681132393     -1.76594829423113     -0.00148755907601
  C   1.28283474933433     -0.82257037905971     -0.00200876034884
  C   2.61606939761682     -1.19854960058686     -0.00273764874290
  H   2.99324694116739     -2.20897944718639     -0.00337047288545
  H   0.63188773810885     -2.78050100490001     -0.00175764700184
  H   -1.56505483943944     -2.72085930871263     -0.00057130555024
  H   -3.83799680575731     -2.10923009918208      0.00120486001141
  H   -5.34276792310885      0.08937821313453      0.00313031070414
  H   -3.73737746012775      2.20849569626873      0.00266783966335
  H   -1.43796928717548      2.68805150553048      0.00093940622999
  H   0.78220340773965      2.63746625910810     -0.00161124656729
  H   5.30934843349044     -0.69575704094807      0.01742506903466
  H   5.12248685983620      1.02144218589945      0.01122534876416
