29
Coordinates from ORCA-job ./opt_b97-3c_parallel
  N   1.00419767471006      4.34383815845712     -0.05001405739145
  C   0.95896656752703      3.18434016115693     -0.09054401289683
  C   0.92462790354695      1.75616630050804     -0.13591494262493
  C   2.21625899888784      1.23192070321724     -0.21917104078077
  C   2.79337172860484     -0.02099468858230     -0.26914383044838
  C   2.25248935220522     -1.39129865421023     -0.14729032972297
  C   0.99215645770586     -1.90609144336644      0.03757910863802
  C   -0.33328621201507     -1.42969724879893      0.08944493766179
  C   -1.21262716230636     -2.51085048966641      0.40963266514204
  N   -1.82755152780234     -3.44097899559089      0.73238923804012
  C   -0.94423639150491     -0.18149112812146     -0.11957669622766
  C   -0.39029116248761      1.22297244352275     -0.16506579502470
  C   -1.47462769163372      2.08571388675516     -0.24626614560491
  C   -2.66298254990153      1.34448542043234     -0.31234733876367
  C   -2.34203308513560     -0.04474759566199     -0.23217021937123
  C   -3.37476937034054     -0.97688600513274     -0.36925092204527
  N   -4.36442632927200     -1.56842286752359     -0.53283046392577
  N   -3.89907322303508      1.81855547266158     -0.44474189527465
  H   -4.07649385783941      2.80329472078848     -0.51713881470708
  H   -4.68243055914064      1.18891174876489     -0.50733946010828
  H   -1.41562786573705      3.15943561337812     -0.28467499733132
  H   1.02027770613362     -2.98170046526674      0.16555892273701
  C   3.36690327523860     -2.26148858186881     -0.21138482710181
  C   4.52596779474710     -1.51478238084446     -0.37711528280017
  C   4.18543101548260     -0.15821390375509     -0.40133276612769
  H   4.87239021621884      0.66828223802012     -0.49718555848979
  H   5.52499226035891     -1.91271782988410     -0.46317647254139
  H   3.30241057121071     -3.33603468993129     -0.14154930263915
  H   2.96246146077400      2.01691169004375     -0.26355529976902
