25
Coordinates from ORCA-job ./opt_b97-3c_parallel
  N   2.97301044331872      3.06323863272992      0.27074692100500
  C   2.20935313531205      2.19261924859606      0.18024116586061
  C   1.26809225469185      1.12733991378102      0.07836574018046
  C   -0.04696773663628      1.59126264143718     -0.13039141154827
  C   -1.30022120988250      1.03075231138177     -0.23120894402365
  C   -2.42981706845482      1.86024311917075     -0.37941892553873
  C   -3.59315134651326      1.12022092122927     -0.23498760752842
  C   -3.25330583343955     -0.21687035157316      0.03824240599645
  N   -4.14964281245251     -1.21657309342243      0.29036249311180
  H   -3.85875843915934     -2.16108835588926      0.10965543796463
  H   -5.10028838489940     -1.04275527056361      0.01461216669288
  C   -1.83313749393221     -0.33235272734319      0.03696264171469
  C   -1.19156635885779     -1.50966627681818      0.33860211533965
  N   0.01155640499547     -1.97535745209964      0.05918266994729
  C   1.20932588315176     -1.53187115116471     -0.13914846195374
  N   2.18281299636217     -2.42363771568921     -0.48151725932518
  C   3.33473787583815     -1.75436388522170     -0.39025602766388
  C   3.20396183619593     -0.40274623517288     -0.01899468256216
  C   1.84476129758190     -0.15281347860286      0.07587090964076
  H   3.99849838921092      0.31868392091670      0.06918094247367
  H   4.26761650804334     -2.26207012951116     -0.59730062612155
  H   -1.81213617102203     -2.27006569819105      0.81325673536225
  H   -4.60029226045534      1.50525139970730     -0.29061478945485
  H   -2.37943908804465      2.92508265855477     -0.54487768433732
  H   -0.07754966275251      2.66959812715831     -0.23631409003245
