30
Coordinates from ORCA-job ./opt_b97-3c_parallel
  N   -2.08006447721803     -3.32577772934541      1.17532543170502
  C   -1.53293784257690     -2.35981356490183      0.81783631652463
  C   -0.85378225840533     -1.20443936855502      0.37707977770485
  C   -1.72839382433630     -0.12271255375353      0.02647524913608
  C   -1.50955517390993      1.38368149184703     -0.02941222956564
  N   -0.55448329740282      2.11801151871711      0.43162916229652
  C   0.71463759749476      1.88864644848179      0.76655414022171
  C   1.61154993207125      0.94357550190694      0.34113302155624
  C   3.02821735947752      1.25730944477670      0.21706758524307
  N   3.69726809326968      0.31701921422689     -0.43612239352689
  C   2.79281124084209     -0.67246942939616     -0.69467473865949
  N   3.26433818702979     -1.80338851366704     -1.28964543311188
  H   2.61147981443684     -2.34949798413885     -1.82540121827220
  H   4.17689672649810     -1.69874053367327     -1.70096912097830
  C   1.48538600846703     -0.38380833234397     -0.24267533885381
  C   0.51074009513066     -1.37805710604765      0.06740074907884
  N   0.96040143084486     -2.67354291055534      0.04424551760891
  H   1.92414764935287     -2.83738485468397      0.28055755814037
  H   0.32329143348648     -3.39030159057117      0.35125100943980
  N   3.65444727675371      2.37670274321245      0.64387872978525
  H   4.57247645483077      2.53521496347660      0.26575528966716
  H   3.11433014161960      3.20069590577937      0.82870135292005
  H   1.12748322072835      2.70532390232362      1.35626807750766
  N   -2.63650692554824      1.99927271983876     -0.51432574698717
  C   -3.53073580353477      1.03525405402063     -0.65932530719606
  N   -4.75763763029647      1.27734808399634     -1.13452515397565
  H   -5.47270836234893      0.57556383550150     -1.10328868843505
  H   -5.02795545051254      2.23016906578974     -1.30518183581106
  C   -3.03881423235013     -0.27832244318610     -0.30335863099845
  H   -3.58553308809434     -1.20536224877510     -0.36950414696514
