32
Coordinates from ORCA-job ./opt_b97-3c_parallel
  N   -4.46796786341582     -2.49454913024102     -0.99968084155132
  C   -3.89012385035192     -1.52734703472425     -0.70212022872395
  C   -3.26919476036440     -0.33082307490395     -0.35542327497153
  C   -3.92940349478407      0.94314908010544     -0.21913767985975
  N   -3.13071364508909      1.90640029712084      0.23355554339659
  C   -1.89348885617849      1.34644671705547      0.38374691533947
  C   -1.96324705199914     -0.13382692163588      0.10155350771600
  N   -1.13933876457344     -1.12157678775541      0.35216429265621
  C   0.13298096076810     -1.30874401814929      0.59003748343257
  N   0.38759109167803     -2.55388598473767      1.13621573386433
  H   -0.44789637812738     -3.05790263491103      1.38736391209787
  H   1.14398150960898     -2.61963911658765      1.79770359556102
  C   1.27623940507538     -0.52890828893655      0.26560673403876
  C   2.54505382487118     -1.07536525324734      0.02809792380174
  C   3.49154567461730     -0.01235580638451     -0.15109846033206
  C   4.83789248142480     -0.17280458971472     -0.47569547879751
  N   5.96145702649073     -0.30742943981775     -0.75455647654392
  C   2.82329516728116      1.20026931736474     -0.00150010160048
  N   3.41475762716181      2.42017003254033     -0.06830355447581
  H   4.35719701938194      2.44481065699992     -0.41980339655541
  H   2.85637850109520      3.20297025815955     -0.35626272849463
  C   1.42459706983714      0.93343733328704      0.26150960983245
  C   0.57475469443421      1.97672095996002      0.52331589483206
  C   -0.81577527079059      2.15645083204347      0.62760146654362
  H   -1.11382848659092      3.18469891416665      0.79138965871212
  H   1.08794523043468      2.92695256833014      0.62539476961800
  N   2.92155508168494     -2.37960788577438     -0.03064044334699
  H   3.79803276088519     -2.57730264348061     -0.48410219445263
  H   2.19616628657336     -3.06117170968124     -0.17971368210685
  N   -5.21370432163410      1.16027084348447     -0.50719047741754
  H   -5.61172936764753      2.06456165738903     -0.32867412383979
  H   -5.80573404355784      0.41676705007499     -0.82937882197142
