31
Coordinates from ORCA-job ./opt_b97-3c_parallel
  N   -0.96909966894193     -4.23971026139565     -0.37536968503815
  C   -0.86506193316033     -3.09039439295590     -0.23716622295421
  C   -0.75417755449764     -1.68026785940573     -0.06160270112409
  C   -2.00730625451490     -1.08506267269884      0.08291738840819
  C   -2.50525691050647      0.19483457668692      0.20485424755869
  C   -1.89530383855996      1.51526759305115     -0.03567710323173
  C   -0.61808722081818      1.95800533765803     -0.21483888527210
  C   0.69580119544047      1.41652729034760     -0.13746379447723
  C   1.64714488573841      2.45435122800394     -0.37968305628200
  N   2.32784097508821      3.35571047192557     -0.64881947373569
  C   1.21901981230775      0.14946635874350      0.11920034432232
  C   0.59116073562395     -1.22263021157272      0.05759141667226
  C   1.62001252145269     -2.13914255570397      0.15173316862501
  C   2.84392220231108     -1.46222630633481      0.35400246350010
  C   2.60576104279337     -0.06634841829424      0.34071163830013
  C   3.65853847751315      0.80678870892045      0.62118620196117
  N   4.64440805753814      1.35887711846457      0.90556977623487
  N   4.03297751432701     -2.02693686283411      0.55025893998491
  H   4.84620963039238     -1.45592009784134      0.71288073075446
  H   4.14339380107760     -3.02374622216485      0.56223517088222
  H   1.50787690850234     -3.20939913762865      0.12350026569297
  H   -0.58496224359876      3.02154061054578     -0.41709795436544
  C   -2.96687088277134      2.45716747105171     -0.04580078594544
  C   -4.15008901137613      1.81778104926393      0.22385505926219
  C   -3.89170051653091      0.43081382900365      0.38508546870704
  N   -4.85621969799563     -0.50428173255973      0.60493145653005
  H   -4.59736985607549     -1.36368277084999      1.05594474365612
  H   -5.76503033123753     -0.17069755330508      0.87181632389882
  H   -5.12247033394572      2.27949056782437      0.30620115180326
  H   -2.83641422995241      3.51630276696437     -0.20126481183918
  H   -2.78900937161994     -1.83703718820517      0.07161243821081
