33
Coordinates from ORCA-job ./opt_b97-3c_parallel
  N   -4.36178332615140     -1.57798971952216     -0.87671734248737
  C   -3.56129851119211     -0.80428171161780     -0.53576514680855
  C   -2.69837701128046      0.23798349824717     -0.19158813072320
  C   -3.10466003456508      1.63665335134416     -0.21968412950906
  N   -2.11832419367492      2.45038225632709      0.08618685359995
  C   -1.00626956113726      1.65701874456262      0.30005586473929
  C   0.14674508888111      2.27209332840040      0.70387211356856
  C   1.49792034142024      1.88490752924750      0.74722243490946
  C   2.19372725709388      0.80638932349282      0.28038259723747
  C   1.80146019189947     -0.51548162084356     -0.20626745863589
  C   2.94614152034651     -1.04680350517993     -0.83768984145641
  C   4.04125158492999     -0.14651584283322     -0.72265926568733
  C   3.62913026890832      0.94599405628048     -0.00547688495402
  N   4.41444132588609      1.99893205375492      0.37244867632957
  H   5.25717599490342      2.13168720516776     -0.15969980116541
  H   3.95526786047687      2.86645338520560      0.58521768654781
  H   5.02372438706156     -0.30853100263346     -1.13925663430239
  N   3.07650049108930     -2.25626087276572     -1.45447779844218
  H   3.83948231317798     -2.35227092367855     -2.10114138700377
  H   2.23263886348119     -2.73068722783550     -1.72700001843163
  C   0.70265936303591     -1.32529190087283      0.21444862388397
  N   0.99185899100560     -2.66109543905152      0.32864644232434
  H   1.92942292013019     -2.91043437693179      0.58986310007610
  H   0.27368437773195     -3.26796942714017      0.69036313231933
  C   -0.63380820699093     -0.96583730977549      0.47683411431702
  C   -1.42461328244626     -1.98494506658709      1.05363336922175
  N   -2.01065642368902     -2.85125248235087      1.56785629010051
  C   -1.35227721726603      0.22733459466406      0.13800229123883
  H   2.12073195433402      2.70177875299648      1.09502634789601
  H   -0.01274884127814      3.32203200328849      0.91754191091323
  N   -4.33477004145582      2.04542974736946     -0.55490395852073
  H   -4.56196080569073      3.02062452156748     -0.48794174295196
  H   -5.07436243387605      1.38207238670168     -0.69637630354295
