30
Coordinates from ORCA-job ./opt_b97-3c_parallel
  N   3.67881090161112      4.02689250528456     -0.14269988398020
  C   3.38231488670200      2.90301498550235     -0.13718204897142
  C   2.98112356314611      1.56023676126389     -0.11179807666591
  C   3.75325433207605      0.47417881493146     -0.37637509576928
  C   2.93410588891145     -0.70724470478564     -0.25841491773327
  C   3.45225798820112     -1.97651026075126     -0.56033881244123
  N   3.95261621533859     -2.97346222991247     -0.88558277647835
  C   1.62865750459309     -0.35761926639748      0.07928464799390
  C   1.60235646945862      1.10648673194503      0.14297090479131
  C   0.64148436751244      2.05393354250575      0.33771399385290
  C   -0.77203350373089      2.07620401503004      0.38936384738833
  C   -1.74203758154393      1.13605088056108      0.19573074063400
  C   -1.73552224178313     -0.31910801298322      0.05056738879958
  C   -0.75612796192581     -1.29065848465928      0.32732563043600
  C   0.61643684802764     -1.33095346386117      0.40631411829975
  C   1.09533706263694     -2.58499070921439      0.88474781862551
  N   1.41748212988918     -3.60683761729673      1.33305610384702
  H   -1.19166214455249     -2.25838260809527      0.55452870832980
  C   -3.06481820475488     -0.69629350914119     -0.16684842111358
  C   -3.90659976680312      0.49473886801022     -0.14775040194423
  C   -5.29168433940724      0.46349974404153     -0.36646068749627
  N   -6.43339955834223      0.36012562524889     -0.55615561217767
  C   -3.11140415640374      1.57646182468774      0.09449904117965
  H   -3.43308757260639      2.60230714587145      0.15589949202522
  N   -3.57271067737791     -1.92713461674825     -0.34009350350381
  H   -2.98064715085948     -2.70350131485444     -0.57060945499932
  H   -4.55298001048532     -2.04311870299299     -0.52774959907222
  H   -1.16126706416347      3.07861571955653      0.52190182758373
  H   1.05243678104218      3.05643325398676      0.38853531519045
  H   4.79582762439355      0.47071297236659     -0.64528407993037
