37
Coordinates from ORCA-job ./opt_b97-3c_parallel
  N   -4.10598295482115     -3.40953728373316      0.63568093491545
  C   -3.63360916258564     -2.36213344580167      0.43471285482015
  C   -3.09967975297064     -1.09924967401833      0.19379920855798
  C   -3.85351063057911     -0.00163408446976     -0.31613927589412
  C   -2.99524763670007      1.09752393999729     -0.47952477896190
  C   -3.40449090290794      2.37009353892190     -0.86183542338207
  N   -3.76197016901649      3.43486307763575     -1.17843686607872
  C   -1.68057629145680      0.72058774722802     -0.04190662372329
  C   -1.74139311240612     -0.71810486466935      0.31220533345107
  C   -0.77831042532671     -1.61657034370943      0.71916513918700
  C   0.61547256978530     -1.70210672772055      0.58043828113818
  N   1.09728390075605     -2.96296562020228      0.82827010158551
  H   0.45935386594374     -3.65335594569184      1.17962410025795
  H   2.05993454198010     -3.07931336498161      1.09278652555532
  C   1.57991877350492     -0.74313640957883      0.16375969596922
  C   1.63178236611227      0.71018322626068      0.44781231874347
  C   0.62589212564710      1.64888900751296      0.65969408288850
  N   1.00848188750911      2.87782195179123      1.19453672344711
  H   0.24487599370536      3.49237114193136      1.42133256846275
  H   1.68138680562985      2.82797836253724      1.94239195843390
  C   -0.72387355729350      1.65458565357830      0.21066803525853
  H   -1.08499286196934      2.66951595644716      0.06479882927764
  C   2.99181147935897      1.12334011352796      0.24386947119096
  C   3.72501499149589      0.01863647266505     -0.21487781316963
  C   5.04713071075331      0.05096297923672     -0.65649355486702
  N   6.15039546040602      0.07417406007335     -1.03169654065078
  C   2.87178306507491     -1.11370882670168     -0.25567422197004
  N   3.34657738299578     -2.35838705849985     -0.60180438550336
  H   2.67954283072765     -2.97375390028160     -1.03776217515492
  H   4.23060514872991     -2.34380173284168     -1.08604150964126
  N   3.53180407135500      2.37477406830417      0.35113444055311
  H   2.87909897679158      3.14089590286046      0.27171978891732
  H   4.38265894469580      2.51152942288095     -0.17266790983597
  H   -1.21797612655236     -2.54663728779741      1.06524395238846
  N   -5.15844658651858     -0.03645528291383     -0.59430031924711
  H   -5.70009456975168     -0.86350695724219     -0.41970542779530
  H   -5.62896562633359      0.77442041814423     -0.95364552142570
