31
Coordinates from ORCA-job ./opt_b97-3c_parallel
  N   6.19973077381124      0.45555562046301     -0.66558993046818
  C   5.07455219805760      0.27508017188884     -0.42977494741955
  C   3.71749133496519      0.12995243943317     -0.12113507528921
  C   2.91305313018366     -1.00390083807888     -0.30702259782167
  C   1.58768109279443     -0.71614265851520      0.03834586255747
  C   1.56891472625348      0.68376226186207      0.48918694275540
  C   0.58032267506162      1.50057204257816      1.02607904456433
  N   -0.71700791292425      1.57874637676190      0.85921749851005
  C   -1.59866009851387      0.82887794714438      0.23447147227724
  C   -2.83842582285374      1.34209121901537     -0.15882926401935
  C   -3.30771056907413      2.65013860879645     -0.05396299142338
  N   -3.77463615759556      3.71519353599834     -0.00432115518842
  C   -3.61356559900824      0.22279496947073     -0.60077111249630
  N   -2.94507996329359     -0.93871119750762     -0.52532863434543
  C   -1.70321663986507     -0.65294466340506     -0.08720186019952
  C   -0.80454314465716     -1.70804583982882      0.04417829896382
  C   -1.42050729294622     -2.98385573985370     -0.07715150122145
  N   -1.80705393894135     -4.07849630550518     -0.13131600613927
  C   0.63467250640168     -1.75820151339931      0.15276239913601
  N   1.14204761597864     -3.00224927272156      0.27561548473299
  H   2.10798288797117     -3.13146694317170      0.50416055066262
  H   0.55896754079016     -3.81922239796483      0.20785151551342
  N   -4.86264260194895      0.27393367421078     -1.04180839349379
  H   -5.35891408004783      1.14540210464518     -1.10205975773075
  H   -5.33080115751212     -0.57900219424733     -1.29485862623563
  H   0.95732597687953      2.30924087668666      1.65115009725251
  C   2.90733859209345      1.16315696098754      0.40472155453055
  N   3.36222779806892      2.39741665907606      0.75129259429725
  H   2.73159165682206      3.17535196601541      0.68595772072005
  H   4.30529688857061      2.61965892888077      0.47915391802764
  H   3.27715091567816     -1.92633002461596     -0.72807784780984
