23
Coordinates from ORCA-job ./opt_b97-3c_parallel
  N   4.57319003941264      0.03900167293371     -0.08682701856295
  C   3.24293712658304      0.01864503263149     -0.03077425045515
  N   2.52276038651803      1.16346213395677     -0.08066133736794
  C   1.24765688454163      0.76279743120215      0.00219625332790
  N   0.31175368287676      1.69335279588063      0.02986929030269
  C   -1.00245271736704      1.66342009485188      0.07025757185697
  C   -2.02028207695340      0.71119790197884      0.00876114348652
  C   -3.35820687693206      1.14408887670172     -0.01734558571714
  C   -4.20800128565956      0.03789916307302     -0.07864344103726
  C   -3.43079310290733     -1.11762691465974     -0.07788658641729
  C   -2.06714187391071     -0.76767253431569     -0.02522629358392
  C   -1.08851740955098     -1.74435566414902      0.03845895668035
  C   0.29531819700083     -1.75103550838884      0.10109845525963
  C   1.27273550117721     -0.76637509779058      0.08561615142232
  N   2.56017248554978     -1.14462532080163      0.07832219842604
  H   0.73559510749011     -2.73998263578053      0.13826151378536
  H   -1.50669250325844     -2.74628667750524      0.03229830678382
  H   -3.79640878145141     -2.13296196129553     -0.10224174191882
  H   -5.28599286485461      0.07352072781647     -0.11270668947670
  H   -3.66243689268384      2.17937037383588     -0.00149596070265
  H   -1.41250423213875      2.67114152209161      0.14720042501402
  H   5.05521462510983      0.91561558303248     -0.15818407697117
  H   5.08915386320803     -0.81913008229972     -0.02752969413475
