30
Coordinates from ORCA-job ./opt_b97-3c_parallel
  N   -4.43813668376000     -2.44046133825361      0.69014263350877
  C   -3.64115580665329     -1.60730473087273      0.52350830645360
  C   -2.76885438619136     -0.53296573366261      0.36442170633377
  C   -3.16406902720677      0.82129387710529      0.44912859615096
  C   -2.07266485384544      1.66178697527296      0.09808827427853
  C   -0.96027797401550      0.88846193825056     -0.15226698623835
  C   -1.43194994948056     -0.56349831010356     -0.10385484404151
  N   -0.92093994222863     -1.66476767965309     -0.56749279262109
  C   0.29748229826345     -2.04369133920671     -0.90947152589766
  C   1.54268816638315     -1.59787938903910     -0.51862356675909
  C   2.62994310948585     -2.51631183534810     -0.49320851015872
  N   3.68210205569741     -2.04496899714602      0.15711860875057
  C   3.35684987008956     -0.76776807148799      0.52030436374680
  N   4.32241661466897     -0.01661293613467      1.14558308649920
  H   4.00004496182835      0.60973809412205      1.86604955222170
  H   5.10746181567630     -0.57877654584336      1.43623426349231
  C   2.05348920731483     -0.39334253771652      0.12020600646320
  C   1.63180889525369      0.95101734795798     -0.06908525492361
  N   2.59987925170255      1.89629341265176      0.05083597029983
  H   2.38200336530449      2.85826129197111     -0.14527612052523
  H   3.56427283044459      1.62359611243091     -0.04019498556486
  C   0.32677149179718      1.44990601989532     -0.36050414101473
  C   0.28415629208517      2.83386004382968     -0.65303215509074
  N   0.27023127591826      3.97363083440636     -0.89130794815514
  H   2.60484984695566     -3.53151372244917     -0.86203925663926
  H   0.30438598319655     -2.96834710264370     -1.48220739714400
  H   -2.09282151609583      2.73797758123406      0.14727865225492
  N   -4.37371218168200      1.23782070902542      0.81554940285901
  H   -4.62865466530039      2.20691619922231      0.76420885399720
  H   -5.09371844960719      0.57275363478358      1.04243307136218
