28
Coordinates from ORCA-job ./opt_b97-3c_parallel
  N   -2.86232032128949     -2.52720547346765      1.54339068573243
  C   -2.22688443366529     -1.69123776718721      1.04224156223064
  C   -1.34310513515799     -0.75126402123881      0.45499746648877
  C   -1.96064846986699      0.43628121184119      0.04554659541147
  C   -1.40200843444529      1.76063172370145     -0.45659488289753
  N   -0.27736583096297      2.35174704856278     -0.24018380007544
  C   0.86451211582583      1.93056712867481      0.31294296974156
  C   1.53050141051945      0.74272192784258      0.24406992907940
  C   2.98190424231380      0.72203812623354      0.33921690119592
  C   3.43825264696292     -0.44173849550257     -0.25166660852849
  C   2.33048707926238     -1.22568128877034     -0.63103629861387
  N   2.46602763282973     -2.47563184279786     -1.18587145569683
  H   3.38087639895088     -2.68418824605772     -1.54901090072017
  H   1.73070357799116     -2.76127337244305     -1.81205072564014
  C   1.12003798928314     -0.58153008041707     -0.26711647991855
  C   -0.05030014230044     -1.28121685456295      0.08631659715571
  N   0.00884986115502     -2.64035289831565      0.08723680377365
  H   -0.78648995775682     -3.15573958440497      0.42547030974392
  H   0.90249096168569     -3.09098005223929      0.18077621432552
  H   4.47225957096167     -0.71238783862255     -0.40502539381752
  N   3.76784740746260      1.69494192297673      0.87092686685478
  H   4.71800706565116      1.75118078755942      0.54905584928767
  H   3.35776411023250      2.58766410435221      1.07532941107519
  H   1.40848139924803      2.76270362644725      0.75510201075617
  N   -2.45383253646139      2.44854407713234     -1.00531321331262
  C   -3.49937541636316      1.69568015594595     -0.71028891369472
  N   -3.28820169980932      0.51492051824992     -0.05225774267415
  H   -4.50396428275685      1.98741032790611     -0.98493186406308
