30
Coordinates from ORCA-job ./opt_b97-3c_parallel
  N   -4.62554224974106     -0.03756585598403     -0.95312509861004
  C   -3.58556784822735      0.44553964315877     -0.75967843028347
  C   -2.33833901126240      1.05814221264732     -0.58710420203671
  C   -2.06924913447310      2.43401017522002     -0.93317002173256
  C   -0.77071840007708      2.72198090812175     -0.65888512856659
  C   -0.11673515101211      1.52990686284408     -0.20155574460915
  C   -1.16850780718906      0.45764146401535     -0.14158867930080
  C   -1.16391183755214     -0.78928879239566      0.55063585219300
  C   -2.31144442904000     -1.08501529535059      1.31946183337775
  N   -3.19010097949174     -1.39260648634284      2.01831268203865
  C   -0.22305656438001     -1.83454367742968      0.45838785140463
  C   1.02905791800428     -1.78398909658335     -0.23032585934435
  C   2.08323286174105     -0.79842887222120     -0.19321383690540
  C   3.18946693618459     -1.44150072318528     -0.82570709977946
  N   2.87747728362910     -2.65400100412330     -1.26633623993180
  C   1.60483128317332     -2.89148764880695     -0.85190213339953
  H   1.12395018945528     -3.83489105344605     -1.06372754418617
  H   4.12912799105057     -0.97498103742918     -1.08663441288230
  C   2.19404470558075      0.50547354164447      0.31186372506938
  N   3.39635974352719      0.86756140656555      0.79225769702080
  H   4.11146464994163      0.17203074799679      0.90090913881445
  H   3.65222303861189      1.83194127281483      0.92742552654718
  C   1.20512544180874      1.56218229569325      0.20033902740020
  C   1.74137740609069      2.86151614769272      0.41420040807600
  N   2.24532883970172      3.88678135518451      0.62557111963455
  N   -0.55025733576486     -3.02933973912485      0.98312786626455
  H   0.14708390623718     -3.74503999774448      1.06472857064311
  H   -1.45230417535441     -3.19166469335777      1.39933183224764
  H   -0.26756580453576      3.65349873654676     -0.85239282727823
  H   -2.79621122873663      3.09603631847870     -1.37559219208500
