26
Coordinates from ORCA-job ./opt_b97-3c_parallel
  N   -4.89671494823444     -0.34052312508051      0.40306660021482
  C   -3.58514285472226     -0.24650408721861      0.18942413027436
  N   -2.82104724939823     -1.36470876359430      0.08851223292716
  C   -1.58348650689824     -0.90243307155396     -0.11401727910674
  N   -0.62214264848528     -1.75645163603205     -0.38731683562556
  C   0.68876406024035     -1.63189149685350     -0.46397509079111
  C   1.63309745463035     -0.67651093099437     -0.12954944341937
  C   3.01347347877932     -1.04967731278133     -0.00078486475102
  N   3.80033122462347     -0.00803066841315      0.30748672629268
  C   2.98902484246299      1.06778842992166      0.34901739211613
  C   1.64308988642635      0.77213778645004      0.11196128647466
  C   0.65195697425857      1.76287618116086     -0.04141340130514
  N   1.08278766272792      3.06061890399729     -0.04512942697805
  H   2.03196542539935      3.26322101534286     -0.29276236883745
  H   0.41992935553571      3.78512951329177     -0.24843191607388
  C   -0.75250746290822      1.65332557585740     -0.11438998628137
  C   -1.66902162448722      0.63096093171982     -0.07285881446450
  N   -2.97439074556645      0.94770299191803      0.06615721486349
  H   -1.26126413527281      2.61162437162980     -0.12703669814756
  H   3.41512927979411      2.02743649698080      0.60324900099648
  N   3.56375192291416     -2.29011800030485     -0.15738354986588
  H   3.00160084968127     -3.08537958658252      0.08657971166434
  H   4.51095793640238     -2.34864504190371      0.17827734657684
  H   1.13818524664760     -2.55548865028926     -0.82962054951110
  H   -5.45911566132102      0.48908302786326      0.43688780863096
  H   -5.32358193392952     -1.24482886673133      0.47719145872698
