29
Coordinates from ORCA-job ./opt_b97-3c_parallel
  N   5.26054915644966     -0.04563167565441     -0.10425346677941
  C   3.92435038227989      0.02118660160856     -0.03666741246577
  N   3.28484724712777      1.21100127455326     -0.00651467907457
  C   1.98030830200957      0.87545833800790      0.07244762160324
  C   1.02686332235747      1.86507546622792      0.19112427545153
  C   -0.36541019020041      1.86242452649121      0.23988030679568
  C   -1.37891536320133      0.93991048544284      0.13592270530833
  C   -2.74642196188859      1.37977306030966      0.08309283429052
  N   -3.60194015609049      0.37793733356281     -0.12033552535500
  C   -2.86142215877635     -0.75377510896381     -0.17645751496893
  N   -3.53640369821180     -1.94977050503984     -0.37301660775343
  H   -4.50492123386328     -1.77051890938562     -0.59321578922745
  H   -3.11297410283451     -2.55958977542588     -1.05646649194256
  C   -1.48023198628095     -0.53073148792867     -0.00628908494465
  C   -0.53259008158015     -1.55771161506081      0.17961293583667
  N   -1.04073460392387     -2.82925547523485      0.32175186271195
  H   -1.98118678918895     -2.92288380488901      0.67239314799852
  H   -0.39988063050970     -3.53414602255058      0.63872200864326
  C   0.87966270956092     -1.55072387140107      0.18909451353972
  C   1.89898813658779     -0.62973546944916      0.08432915152308
  N   3.16910823371509     -1.09494053114670      0.02674950765261
  H   1.30248555215137     -2.54707817281881      0.26119953986845
  N   -3.22583841253614      2.65228853535573      0.23541031729617
  H   -4.17312256645387      2.75790014957687     -0.08852273331789
  H   -2.62669144812687      3.40701477911253     -0.04843457372841
  H   -0.73886762124184      2.87297052225900      0.37213622112441
  H   1.47351211901779      2.85025903819465      0.24075914187649
  H   5.69334998067005     -0.93587788254833     -0.26485916853045
  H   5.77708564615089      0.79271462593799     -0.29422986049076
