27
Coordinates from ORCA-job ./opt_b97-3c_parallel
  N   -5.01067818276584     -0.24332210607119     -0.16726136431745
  C   -3.66462998102656     -0.19472139665448     -0.07868496182896
  N   -3.01842685840659      0.97141910123027     -0.13054110513025
  C   -1.68450614023291      0.67454317757591     -0.05853287774786
  C   -0.80858997041076      1.73334456689818     -0.04303802954511
  C   0.58426116161416      1.89233816890954      0.02965979732156
  C   1.68446107772550      1.07409185127557      0.05508123049187
  C   2.98623617754617      1.65362189734583      0.07975538988319
  C   3.93040714852289      0.65872340109226      0.04018987336933
  C   3.27029707448433     -0.59949177614481     -0.00175207364949
  N   3.93872653727761     -1.80847253391664      0.00929323813306
  H   3.46269031499708     -2.57134297331108     -0.44276051458879
  H   4.89674034478340     -1.75364186954148     -0.29355209940629
  C   1.87993638428453     -0.39687881100658      0.02618568943877
  C   0.98717845722341     -1.46974669486424      0.09640221326064
  C   -0.37499932668083     -1.64750244256318      0.12206374421343
  C   -1.50309503422435     -0.80956222178930      0.04063807751119
  C   -2.78833286418932     -1.31152860843548      0.02954331031895
  H   -3.06827913214128     -2.35250544129470      0.07745624416403
  H   -0.65999702861116     -2.69149008651123      0.20066150264909
  H   1.50030576440131     -2.42382905673811      0.17674694596143
  H   5.00260648211094      0.79317891502102      0.03593995700672
  H   3.17545502251764      2.71552407692155      0.09487293232427
  H   0.86098084298627      2.94211257822611      0.05060925600056
  H   -1.34316679217471      2.67429607941980     -0.09590852357769
  H   -5.49663747098103     -1.07162551552407      0.12185653221355
  H   -5.50308589002990      0.62787858915054     -0.07088578556975
