30
Coordinates from ORCA-job ./opt_b97-3c_parallel
  N   -1.23964169625424     -4.39215488131544     -0.37590965632207
  C   -0.90397393680217     -3.28944076684039     -0.24276628281063
  C   -0.64523334926269     -1.88896730771910     -0.13426894122864
  C   -1.81188220258249     -1.11164128877477     -0.36090318044686
  C   -2.15561013081020      0.17929949200755     -0.11370521972124
  C   -1.44425715450563      1.33524905052158      0.47767142640419
  C   -2.43910383062584      2.16431638717053      0.99103837910755
  C   -3.71836296631406      1.67486367476369      0.67470639079911
  C   -3.57806805821703      0.51997867314785     -0.07441649647885
  N   -4.58022434403290     -0.27388173695501     -0.54582639713116
  H   -4.42549391536489     -0.76802103641333     -1.40756746375786
  H   -5.51438829774806      0.08671383043891     -0.46239960818093
  H   -4.65302346884087      2.12986428450095      0.96325762403120
  H   -2.26883050598451      3.07702386233412      1.54079683020710
  C   -0.13910455943695      1.79598907939986      0.21480691891129
  N   0.06629254165479      3.12767357735788      0.36224633435902
  H   0.97641786168743      3.51729114196276      0.18635822275838
  H   -0.70853273014047      3.75937522621957      0.27847486902137
  C   1.01622160377059      1.05557912196681     -0.20717772524154
  C   1.99014362902427      1.84275630140751     -0.86817991341926
  N   2.70992101390405      2.52545935715333     -1.47696867457608
  C   1.40462228747493     -0.26377790615824      0.10539832716259
  C   0.65330156950823     -1.54914451155163      0.20194896649782
  N   1.51356504630057     -2.57740491765493      0.46893084077520
  C   2.72424662156414     -2.05678489176049      0.53213403050025
  C   2.74320312845961     -0.65778188310400      0.27940462014150
  C   3.88473401317817      0.14292251119116      0.41651948230108
  N   4.85884041511700      0.75587483782132      0.57985576426347
  H   3.58479086796064     -2.65643983076856      0.79102032539008
  H   -2.64281411758380     -1.73714106354731     -0.66095709721759
