34
Coordinates from ORCA-job ./opt_b97-3c_parallel
  N   4.63025650774132      2.62814095960472      0.29956430787388
  C   3.98664173305457      1.65856043870774      0.24776592656888
  C   3.28874994865542      0.45346682835528      0.21795838725301
  C   3.83168784486402     -0.83899076903253      0.58490706687717
  N   2.98360696141608     -1.83411758278027      0.38613390396631
  C   1.81786682387181     -1.26535866536657     -0.07674933121285
  C   1.99757046322630      0.21335866719330     -0.23691521207813
  N   1.26274280479416      1.14167000733365     -0.82960530755140
  C   -0.02501885530078      1.33771508434684     -0.90673979468709
  N   -0.35196371710353      2.47132224055609     -1.60196831966241
  H   -1.25679544684339      2.54182813945051     -2.03277116875047
  H   0.41575087257914      2.94401392096562     -2.04873644122494
  C   -1.13062679536151      0.64326748232159     -0.29867116127477
  C   -2.29448909287677      1.30434630697985      0.10511721239993
  C   -3.31665094483539      0.34052789019656      0.37001583374907
  C   -4.57851558364493      0.61507770876993      0.89298165586969
  N   -5.63166779301678      0.84611612337948      1.33682703531412
  C   -2.81655774137055     -0.92846482709638      0.06612333856148
  N   -3.53980852750612     -2.07803357604033      0.21013752058240
  H   -3.00085816612917     -2.92432057867891      0.32274658475654
  H   -4.33349863935569     -2.00671837298280      0.82789131689667
  C   -1.43431326786435     -0.79187740864714     -0.33263346471423
  C   -0.62883875034632     -1.89816940858474     -0.59068283573891
  N   -1.27870170832614     -3.09232624778313     -0.91712755358171
  H   -0.66200467466977     -3.84154050543936     -1.18206113161142
  H   -2.04301710250700     -2.99661887367844     -1.56660602414786
  C   0.76272550585696     -2.07725963862396     -0.36241300254549
  H   1.04784217541268     -3.12227341681482     -0.28744442454613
  N   -2.53383026266973      2.64742931192774      0.19037953922973
  H   -1.73057291575721      3.24626162471376      0.27559592651904
  H   -3.31157924341427      2.91749832088460      0.76974543547803
  N   5.06054408848084     -1.01822085335824      1.07683059070698
  H   5.38461113273233     -1.94916617574167      1.26650142533154
  H   5.69198540001326     -0.24644553983836      1.18751341919265
