29
Coordinates from ORCA-job ./opt_b97-3c_parallel
  N   -6.27157562977637     -0.23937539317265     -0.20307451900685
  C   -5.11665725104388     -0.16910335246875     -0.10168854711202
  C   -3.71884433531020     -0.08876785361772      0.02708502685591
  C   -2.94279393684651      1.07790980558662     -0.07969104013546
  C   -1.58755736854272      0.74865865935987      0.04438860711423
  C   -0.65964122774523      1.79515424868401     -0.02323802225608
  C   0.71519314942245      1.93798969864971     -0.08512639002389
  C   1.11586949061912      3.30642576522081     -0.16954085258834
  N   1.43670121714446      4.41985841529965     -0.23494143541298
  C   1.79437538233121      1.01693003204459     -0.13987099884057
  C   3.10307897934772      1.41909707118601     -0.35226992066327
  C   3.95858230917695      0.29725840268692     -0.39052338999306
  C   3.21830504752523     -0.84642076396803     -0.18577411034755
  C   3.68461033447326     -2.16304189432698     -0.12386281692166
  N   4.01744037617384     -3.27630645061041     -0.05464476765214
  C   1.82086722356641     -0.46347599149365     -0.00780011239719
  C   0.93217028787459     -1.43619563956279      0.31161634114665
  C   -0.46759666271973     -1.56767889450632      0.58235954570189
  N   -0.76631218252893     -2.77632647397630      1.11446693360720
  H   -1.67583152066404     -2.96847735800511      1.48773924364155
  H   -0.05264281547823     -3.46251273633501      1.27596428616792
  C   -1.53440202261837     -0.70647883160904      0.28835048518545
  C   -2.86307340419184     -1.16868582151724      0.26870514777209
  H   -3.19669419470261     -2.19049218642446      0.33459130320567
  H   1.42495571895925     -2.40040553745655      0.39656061392600
  H   5.02430012824265      0.32739889960177     -0.55125151334743
  H   3.42147354195440      2.43965633837358     -0.48008631160607
  H   -1.16425763536368      2.75165380610604     -0.08236520551443
  H   -3.32643229897752      2.06942545375295     -0.25293949290673
