31
Coordinates from ORCA-job ./opt_b97-3c_parallel
  N   -2.72108759230834     -3.97187915281062     -0.66160805443030
  C   -2.18706867607304     -2.96166825050707     -0.46298975183172
  C   -1.48384558361242     -1.73075332404597     -0.26351763955836
  C   -0.10466875556743     -1.85405063961957     -0.60561124755010
  C   0.98528598112888     -1.04462509548630     -0.42420197149074
  C   1.19528861661334      0.35626324459268     -0.15814542978975
  C   0.33310358362903      1.48166128430833     -0.44716356831049
  N   1.01600272803861      2.56803905793904     -0.98238460216584
  H   0.43935997188452      3.34636726198585     -1.26692455308634
  H   1.69863294455720      2.32534679936126     -1.68379115599426
  C   -1.01333120523931      1.60033045437344     -0.19060645408500
  C   -1.60960704977011      2.81091787276977     -0.61863702970585
  N   -2.05556926610450      3.82397942534873     -0.98011586501622
  C   -1.92074990088402      0.71913558559241      0.53124323056986
  C   -2.96657809090968      1.21282626168534      1.25810227741802
  C   -3.88668629599348      0.14572651257227      1.60050185740354
  C   -3.45298206306630     -1.00093930697133      1.02874199370498
  C   -2.19148011687869     -0.72577285268586      0.35989314776886
  H   -3.88795059977535     -1.98144582403697      1.12152175229115
  H   -4.76202673082970      0.26086336253276      2.22033480644057
  H   -3.11702754431416      2.25483748269437      1.49317829463026
  C   2.55117686739533      0.50570802360041      0.14888867946039
  C   3.20888978095845     -0.80039237543798      0.05224061690944
  C   4.56558735422065     -1.00083379728874      0.34207053197107
  N   5.69792317962472     -1.08598676001972      0.59052830406137
  C   2.27867456957756     -1.70622200122597     -0.35029597669666
  H   2.43430364212638     -2.76217678737763     -0.49412294640469
  N   3.22017299180051      1.60553070792716      0.52291332736129
  H   4.21819074815153      1.57946135870842      0.63692417320816
  H   2.76161591944665      2.50006148746085      0.47298083939740
  H   0.15119927307342     -2.85898275064082     -0.91615756247849
