32
Coordinates from ORCA-job ./opt_b97-3c_parallel
  N   -2.23463167835319     -4.34194263031892     -0.44256475016090
  C   -2.23030184418235     -3.17896914650812     -0.41230535417347
  C   -2.17132435877374     -1.78099592435090     -0.33638882104797
  C   -3.10576535557659     -0.88675744454121     -0.80060221866327
  C   -2.62872426726772      0.42532375089674     -0.49936262350810
  C   -3.31363629572957      1.60202546417517     -0.84040193989753
  N   -3.88401381931659      2.56050881377525     -1.16752769448643
  C   -1.37311054542719      0.33877612082120      0.12378950386113
  C   -1.04196208081411     -1.03808183079396      0.22242734894573
  C   0.05297161350094     -1.72864252370006      0.74089818832651
  C   1.40578554062830     -1.44246382636578      0.85627087803258
  N   2.25776453227568     -2.47620800674807      1.33486848768505
  H   2.80948797352599     -2.17914721556040      2.12844908614197
  H   1.74422978217954     -3.30558345102399      1.59478179456643
  C   2.06369037597257     -0.34077000857052      0.27191082789302
  C   1.65482255787541      0.96605777555381      0.02602242162819
  C   0.62537711689073      1.76122405177217      0.65278768103712
  C   -0.69112933890075      1.48939021344723      0.72112436764823
  C   -1.50041321163852      2.39547471588983      1.46487548806539
  N   -2.14310276028222      3.13105950934613      2.09183229543264
  H   0.96054475566430      2.67860814461262      1.12988746926618
  C   2.71694246209679      1.54578176337736     -0.74524415275007
  N   3.73382153900852      0.68898490087120     -1.02442799917335
  C   3.39296130022545     -0.43891468884035     -0.41349214181150
  N   4.12883327719725     -1.53729132386823     -0.47758731926604
  H   4.90994859200747     -1.56882300232959     -1.11143025681753
  H   3.77093021236188     -2.37206713525789     -0.02569442666903
  N   2.77007073331102      2.80988656052995     -1.15182448824765
  H   1.97204886189089      3.41347156192464     -1.06530356767384
  H   3.54473457886376      3.11334097932642     -1.71543533035341
  H   -0.17877332946642     -2.76733913902546      0.96727898239763
  H   -4.03089761124794     -1.11615290001581     -1.29966037962798
