34
Coordinates from ORCA-job ./opt_b97-3c_parallel
  N   -6.11480266984835     -0.31091835777248     -1.39048654249315
  C   -5.04037945966515     -0.37162879450775     -0.94694116926003
  C   -3.74929486015152     -0.36757547507257     -0.40673225616007
  C   -2.92648151972031     -1.46537915137414     -0.14875480690091
  C   -1.67223221091127     -1.00556332143497      0.29399408009833
  C   -1.74488519792821      0.44977112936277      0.34287860406072
  C   -0.81544290283377      1.38321672189037      0.90883830702690
  N   0.47687349573907      1.49810241095003      0.69965907893478
  C   1.42348131402554      0.72697001614278      0.22860888994557
  C   1.60708728940081     -0.76146095669227      0.28860976994876
  C   0.75026401438161     -1.77163043726554      0.62405689459593
  C   -0.65800322203597     -1.90837555339235      0.68663416016031
  N   -1.06665191186605     -3.14461049610210      1.07906642132632
  H   -2.04246561107490     -3.34643849393227      1.18234642490783
  H   -0.43128571587253     -3.92155695225144      1.08264768187233
  H   1.26358307336652     -2.71940609630127      0.75884921781840
  C   2.96916630195896     -1.00846326438946     -0.05641357511853
  C   3.59165681465441     -2.25101058369181     -0.13270328170051
  N   4.12701608863303     -3.28527689689007     -0.19401567190397
  C   3.57065058908769      0.21029660831624     -0.42901903616333
  C   2.62683635438386      1.26688771953828     -0.25804590533538
  C   2.92439759265760      2.61740761807058     -0.43329755921882
  N   3.23212497319560      3.72794194073488     -0.60159766778552
  N   4.81404788844842      0.36913677371818     -0.87425612838891
  H   5.44081281679791     -0.41301796863254     -0.94384832722179
  H   5.15897222609796      1.28013628228798     -1.12056350774366
  N   -1.33175692804566      2.36541331067306      1.67958670116819
  H   -0.74784146747839      3.15060726117302      1.90967844403466
  H   -2.32056506746897      2.41785762268534      1.85185271682164
  C   -3.03322004537469      0.81634113117406     -0.06822223348453
  N   -3.58299304259063      2.08770622527002     -0.10799027884691
  H   -4.46289363177025      2.12491023552448     -0.60057251526745
  H   -2.95925508156114      2.80657162968774     -0.44065141730212
  H   -3.18712927333384     -2.48318865569435     -0.38574958852186
