28
Coordinates from ORCA-job ./opt_b97-3c_parallel
  N   -2.91658977781547     -2.61017455452922      0.18154727235279
  C   -2.44745454809066     -1.36151034599557      0.00911441930363
  N   -3.21044555396442     -0.39565655582923     -0.44107782083939
  C   -2.39875458328117      0.72603056434403     -0.43787283362142
  N   -2.92128517374772      1.87106304965298     -0.88412610071215
  H   -2.38163790302837      2.71673500402115     -0.76791276884959
  H   -3.90879514552534      1.90860209296438     -1.06193503838352
  C   -1.07863770514928      0.47931221544358     -0.00275906385440
  C   -1.04924603339030     -0.91592228812474      0.27944466804243
  C   -0.07539343985132     -1.82514429841840      0.59875563269811
  C   1.32995034464256     -1.77155086043675      0.48163863694045
  C   2.21274260420868     -0.79859128786369      0.11395790182041
  C   2.11935861886174      0.66114322986447     -0.05577058231539
  N   1.16172403488447      1.58726472345941      0.27594561220421
  C   -0.11540051207592      1.53111493576204      0.29285375405791
  N   -0.74491412920917      2.76738677651750      0.60498655533583
  H   -0.03024874848347      3.43587787270681      0.85735296127941
  H   -1.42411735369746      2.67902186233989      1.34991762531902
  C   3.35797868878101      1.07902624740890     -0.46960332141528
  C   4.25364476295422     -0.05163280774450     -0.60604012560773
  C   3.59057883984516     -1.16481247807257     -0.22011589649129
  H   3.96438709161368     -2.17683879442860     -0.18864515060161
  H   5.27827447869518      0.00640890407902     -0.94016918673344
  H   3.61787248538364      2.11392121811271     -0.63158833832135
  H   1.79318236795797     -2.74479002419673      0.61572414375465
  H   -0.43095673122559     -2.81770254630992      0.85356788421451
  H   -2.27777711901205     -3.37746795411258      0.26776962413807
  H   -3.81235342068282     -2.81652731321428     -0.22538832281403
