26
Coordinates from ORCA-job ./opt_b97-3c_parallel
  N   5.03911079327178      0.37906069656183      0.15082014999365
  C   3.71041327909003      0.18556533396289      0.05330332787157
  C   2.75402459898319      1.25198621701314     -0.00514251930861
  C   1.48447728439467      0.73655218351735     -0.07094694265474
  N   0.45446025489438      1.59272133905074     -0.17007783997230
  C   -0.84347126672947      1.44292446554622     -0.17061969613418
  C   -1.76809573479200      0.39849679277288     -0.04323921939983
  C   -1.66432235866473     -1.06429536052604     -0.02206988997470
  C   -3.01481458635878     -1.51352797395800      0.00985827668150
  N   -3.89145553233601     -0.52147230956024      0.02769792265716
  C   -3.15792611795212      0.63516561404361     -0.00504102397019
  N   -3.83263446279467      1.82247080565190     -0.04328164986979
  H   -4.80181671999035      1.74032511949639      0.21528341406431
  H   -3.37623891236215      2.62880309527602      0.34485114614524
  H   -3.33309492817310     -2.54655509202373      0.03436698727731
  C   -0.62780010203603     -1.96016319916040     -0.03934886360955
  C   0.76800645991386     -1.84563496416043     -0.03712761419824
  C   1.65619604441906     -0.79457745573957     -0.03734318609803
  C   3.04257651164457     -1.03280807871293      0.02442718807120
  H   3.49907021687987     -2.00966060110576      0.06313110776766
  H   1.26497697254082     -2.81062026288419     -0.01341175192200
  H   -0.96362438547872     -2.99296912043368     -0.03312110462850
  H   -1.33654629707295      2.40829176083350     -0.30277143339078
  H   2.97772062542112      2.30646144320161     -0.01712421573657
  H   5.42485607632329      1.29569179884729      0.02038654596981
  H   5.67200145126480     -0.39325979671069      0.05055694016834
