27
Coordinates from ORCA-job ./opt_b97-3c_parallel
  N   4.54196983545176      2.45602515707861      0.41620121138987
  C   3.99322000558629      1.43196094423598      0.36837365282764
  C   3.34104624660173      0.19646587016265      0.31499257461750
  C   3.84152884518571     -1.06906928633870      0.77762558095578
  N   3.01766772332935     -2.07695438462527      0.60899962108633
  C   1.88195302187493     -1.55505754797139      0.01759098852791
  N   0.89718200887696     -2.33926888515153     -0.23621675899299
  C   -0.38458203557788     -2.19347170077884     -0.56212718766024
  C   -1.26243809294193     -1.14352538288174     -0.36737995320579
  C   -2.65019453032341     -1.43274927960673     -0.18218269605845
  C   -3.29765586724517     -0.27348500825545      0.16850054456018
  C   -4.64677289604140     -0.09202554317952      0.50032734621124
  N   -5.75010624694703      0.13577290771126      0.78846334512569
  C   -2.33753956241593      0.81682923176643      0.11587550952313
  N   -2.71460401911462      2.10862338307137      0.27205603847188
  H   -3.61057906092613      2.28650320146994      0.69415190806936
  H   -2.00520654422440      2.79689998338847      0.45340728687544
  C   -1.08430358215020      0.29268970307585     -0.20859725329974
  C   0.00179776404224      1.07481191282044     -0.75069842374942
  N   1.28867142405217      0.88719984049640     -0.68643216586018
  C   2.06794681163713     -0.04640046590540     -0.18371093097889
  N   -0.35406865686235      2.24151822245182     -1.37035246040691
  H   -1.25095078451774      2.30268443773716     -1.82101424075821
  H   0.40316465282155      2.75387718174709     -1.79215719939135
  H   -3.08546729031930     -2.41755941060581     -0.21282407309085
  H   -0.84309781329007     -3.12621940683359     -0.87827566343756
  H   4.81654821443718     -1.21575986338006      1.22231083554832
