31
Coordinates from ORCA-job ./opt_b97-3c_parallel
  N   -2.37479211978096     -3.86920398883611     -0.53402892795231
  C   -1.90551968830451     -2.82565643632799     -0.34299444640165
  C   -1.17788398516933     -1.60140447451481     -0.19928709414219
  C   0.20145635109261     -1.76658399496953     -0.49974405423172
  C   1.29921816189238     -1.00551359357831     -0.19463126018698
  C   1.51337296954474      0.37301628887524      0.08662357397487
  C   0.74200216579567      1.52177816042652     -0.34128498106060
  N   1.52925175629331      2.55880975341424     -0.84250992284768
  H   1.01226754647306      3.33678263111540     -1.22692692507211
  H   2.26090039928488      2.25150229650472     -1.46552101265045
  C   -0.61461914260088      1.71270654536570     -0.24969788723381
  C   -1.11832967864429      2.90917386064095     -0.80866576927129
  N   -1.48853779805771      3.91388617525368     -1.26795243987688
  C   -1.61769057824491      0.88680031811487      0.41256941344940
  C   -2.72616994771238      1.40911252252695      1.02399189735657
  C   -3.60199195163653      0.30517916932968      1.32901442957783
  N   -3.12656864994678     -0.83817074419895      0.91243552049250
  C   -1.88056366763540     -0.54494193382102      0.33986278159757
  H   -4.55175586893886      0.36368969486631      1.84297127270653
  H   -2.92382896683502      2.45505794359890      1.19891511568193
  C   2.85961707811242      0.48389047362224      0.52838664868370
  C   3.50885112204598     -0.78880293330894      0.51185102239034
  C   2.61140876520122     -1.69967104093424      0.03885728847394
  N   2.81495936149361     -3.02072080284341     -0.16731462572226
  H   3.62999310785033     -3.43960509722903      0.24430370719018
  H   2.02306725727301     -3.63478307929802     -0.22454069663957
  H   4.51170775479437     -0.98292861747050      0.85688141370706
  N   3.45549708346175      1.60236776223534      0.96310422365024
  H   2.99352902626085      2.48475687419197      0.80515918701642
  H   4.44551717929579      1.61282749074916      1.12895785261557
  H   0.41361003504196     -2.76920610570085     -0.84549954287513
