25
Coordinates from ORCA-job ./opt_b97-3c_parallel
  N   -2.25355532050881     -3.13515269354771     -0.34604572852118
  C   -1.69865539682426     -2.12191778240561     -0.21886778740612
  C   -0.84951442230305     -0.98268280269761     -0.11149069399404
  C   -1.57377318477639      0.20820380118279      0.04493023409033
  N   -2.90297161680035      0.09752393175020      0.23444310480079
  C   -3.35904375461145      1.36485358497347      0.19043971956047
  N   -2.46308943030117      2.32292197418581     -0.05129480810083
  C   -1.27860346661190      1.66074218238881     -0.14324379362152
  C   -0.14625182823578      2.38229376589120     -0.44643863875188
  C   1.20792764834862      2.07088667535834     -0.46555202416735
  C   1.96327110048080      0.95443178895777     -0.16962665720882
  C   3.36800727397652      1.12532672483156      0.00207850192987
  C   3.91997793697866     -0.05604514904685      0.43502244874593
  C   2.90401311137714     -1.03503398522879      0.47603902100491
  C   1.68148992011126     -0.47391726069636      0.10569769876092
  C   0.54526167172536     -1.30215228547929     -0.12934749848296
  N   0.83044666385785     -2.61410461848604     -0.29810659136700
  H   0.09704830855136     -3.29196749776385     -0.41830109543112
  H   1.76034996100141     -2.88736330291871     -0.54887646855145
  H   3.05711057864733     -2.04986003535977      0.80653587769908
  H   4.94916455492123     -0.21647124044126      0.71595980884247
  H   3.87472086173321      2.06956196945835     -0.11836866855994
  H   1.82581401050309      2.93749300993720     -0.67487222226684
  H   -0.37336704706248      3.42325829144107     -0.63982514041420
  H   -4.40387488317862      1.58855033331533      0.35069229831017
