32
Coordinates from ORCA-job ./opt_b97-3c_parallel
  N   -5.24309838478067     -0.00240519850990     -0.31059886702560
  C   -3.90711290878148     -0.00153952031935     -0.14658638720565
  N   -3.21493711946145     -1.15480798280867     -0.04501740550984
  C   -1.93080671016559     -0.74858920937332      0.10196589959469
  C   -1.93158526302021      0.74798347013540      0.10062964407357
  N   -3.21614267520729      1.15261141127424     -0.04717307021852
  C   -0.95663679063293      1.67974556429313      0.35858195595208
  C   0.45186118176990      1.69824529638660      0.39823072903167
  N   0.93731317704605      2.96216503592527      0.72840390291249
  H   1.82139480495412      2.98476136158241      1.20888283728254
  H   0.25818540987517      3.58441187195276      1.12949253497272
  C   1.42205884210154      0.74819710564499      0.03177511476627
  C   2.73775351095893      1.13706803184839     -0.35627568785430
  C   3.50448330218123      0.00217674960896     -0.60448376368174
  C   2.73882906623508     -1.13323215841414     -0.35523243749211
  N   3.25267021260317     -2.41889639205303     -0.50329469213217
  H   4.04925935533411     -2.44139052876926     -1.12041663993965
  H   2.56637354772610     -3.10819272791942     -0.77133902535088
  C   1.42279396223053     -0.74529341819290      0.03250441478544
  C   0.45367974221813     -1.69590784941993      0.40045761125897
  N   0.94057623578785     -2.95888015032840      0.73206224319250
  H   0.26224800382122     -3.58140829828204      1.13406285256983
  H   1.82486818552355     -2.97999016458371      1.21221936959769
  C   -0.95483317234182     -1.67890945696199      0.36133688934302
  H   -1.39850263937815     -2.65877556544053      0.50414488742479
  H   4.52475559851858      0.00250062375572     -0.96085450750890
  N   3.25029642050294      2.42310146549995     -0.50560582725294
  H   2.56330014140492      3.11143755540550     -0.77433888392917
  H   4.04686493529222      2.44578622278458     -1.12275007456577
  H   -1.40133979725196      2.65939910197999      0.49962630353788
  H   -5.67724928449287     -0.86360399222691     -0.58770434176928
  H   -5.67816815437118      0.85780308692507     -0.58933487155972
