25
Coordinates from ORCA-job ./opt_b97-3c_parallel
  N   -6.24324068105928     -0.72759138869785     -0.34244220317850
  C   -5.09425703388956     -0.58987640457799     -0.24955465391398
  C   -3.70097473071452     -0.43127678559713     -0.13785974660198
  C   -2.77956936076158     -1.46757381502539      0.16640900523045
  C   -1.49737306332435     -0.94127081865394      0.19367043172497
  C   -0.39788402678864     -1.76780819894977      0.45608872058917
  N   0.88304856600032     -1.64035717548121      0.25212067909241
  C   1.73838267900040     -0.66532573204109      0.07668202980714
  C   3.09465503020802     -0.91899789198985     -0.21976424288054
  C   3.66952784451033     -2.17569070631864     -0.44446064232289
  N   4.16293071333068     -3.20932465714399     -0.63693533140116
  C   3.76540800673734      0.31466867818916     -0.10344636945511
  N   2.95092687818277      1.33589531535498      0.17886047822567
  C   1.69582277132175      0.84270838108540      0.23515376350420
  C   0.63945346519806      1.74595278907228      0.17856986888924
  C   1.02127767664615      3.12335725158932      0.21072293908571
  N   1.21669892021545      4.26579115268563      0.24630551376408
  C   -0.75167811091645      1.57725041402330     -0.01542881766239
  C   -1.62290866305152      0.51589402272828     -0.07573537692463
  C   -3.00232506233590      0.76358124855431     -0.27333712007474
  H   -3.43765203656673      1.72966256166812     -0.46778724265198
  H   -1.25031822866089      2.52860551639031     -0.15591120139541
  H   4.83004699655026      0.46777736813626     -0.19965748184232
  H   -0.67240145216484     -2.75738086619878      0.81721782696162
  H   -3.03924308897049     -2.50022542950203      0.33135149342964
