31
Coordinates from ORCA-job ./opt_b97-3c_parallel
  N   4.43181142764631      0.87954703974082      1.41520584918888
  C   3.65008502456653      0.14050177384867      0.97400142466182
  C   2.72368982967749     -0.79378622924317      0.49309404263754
  C   2.90174746730343     -2.23432439842849      0.50468138330006
  N   1.88232101558581     -2.85768024630973     -0.01209038553227
  C   0.94462857498159     -1.86617649992885     -0.35021553505478
  C   -0.25622179530909     -2.29771392598356     -0.85627342555824
  C   -1.53492124337757     -1.72457017862566     -0.90539091175140
  C   -2.03132487016667     -0.58246223388147     -0.31539295099766
  C   -1.44008730154684      0.63338961105599      0.11808308571470
  C   -2.44742137186087      1.33765085947777      0.83085587012696
  C   -3.67018151676372      0.59685774792640      0.84994724544195
  C   -3.46324343982537     -0.54503152676131      0.13410407974108
  N   -4.36169873817580     -1.52307302345383     -0.13031965147844
  H   -4.02309371187969     -2.43233646677140     -0.38643574003064
  H   -5.20729271111703     -1.53925444887853      0.41209924292930
  H   -4.56584670027235      0.88117624370841      1.37847226325034
  N   -2.28983781247180      2.51381534158955      1.45008568415248
  H   -3.08384906166409      3.00035019829287      1.82468869634826
  H   -1.44945853780697      3.04373500380228      1.28057664643340
  C   -0.24328097477252      1.28903618565713     -0.37897349805331
  N   -0.43567717549568      2.62797717071720     -0.69452242469005
  H   -1.30848370018192      2.82745330976317     -1.15804783274127
  H   0.34953173167549      3.08427839137152     -1.13687105520324
  C   1.01391169650628      0.75401625057870     -0.50125113471404
  C   1.98328076154262      1.56168615413824     -1.13926512507541
  N   2.72563014511778      2.26960045779526     -1.69014068750393
  C   1.47389632827288     -0.55389913866191     -0.05533839933234
  H   -2.27958054810764     -2.41126590946712     -1.29073528994498
  H   -0.23116188734930     -3.34782801599419     -1.12380898397876
  H   3.76698425706931     -2.75452307017463      0.88946275401370
