24
Coordinates from ORCA-job ./opt_b97-3c_parallel
  N   4.65151421444970      0.13520096520828     -0.18238537233207
  C   3.32394844965205      0.00937773831466     -0.06803293214676
  N   2.54417514210541      1.10849194427603     -0.12474682273468
  C   1.26955780823348      0.68975232055083     -0.00095732143554
  N   0.34561177260466      1.61940451722180      0.04983232321479
  C   -0.97325885731196      1.62613262492869      0.12789586257504
  C   -2.01310086969181      0.71161031459698      0.03047163493230
  C   -3.34592210905575      1.18303960809623      0.00610033341357
  C   -4.21347400279086      0.10430189453705     -0.10402248231308
  C   -3.45887989293799     -1.07613567471989     -0.12861896495822
  C   -2.09541816255652     -0.76392171499960     -0.04865979925008
  C   -1.13264598359334     -1.76515600835455      0.03234183968574
  C   0.24229543327305     -1.79860668798406      0.12648855492052
  C   1.25852074320259     -0.84024880841976      0.11328475112881
  C   2.59415345256989     -1.19046453720410      0.09484131587643
  H   2.99411228224105     -2.19145666301162      0.14403110555971
  H   0.63718690352607     -2.80832672724080      0.17596887942333
  H   -1.57373942666757     -2.75729721542856      0.01488419049573
  H   -3.85164409334064     -2.08048476042900     -0.18095753359317
  H   -5.29025919038584      0.16284903877262     -0.15102918421943
  H   -3.62274159717240      2.22507496796083      0.04826439002383
  H   -1.34765987054133      2.64180792526620      0.25974546048956
  H   5.04176873971502      1.05948832123532     -0.23346259571783
  H   5.26749071567301     -0.64111235897379     -0.03344206903937
