31
Coordinates from ORCA-job ./opt_b97-3c_parallel
  N   3.32042281610332      2.14206932742139      1.64657491540391
  C   2.50450539014506      1.50665945963359      1.10758471301514
  C   1.50002250033730      0.76482118306441      0.45292091322278
  C   1.95334711608198     -0.44019108910819     -0.16565559680388
  C   1.19223847065230     -1.68819448634123     -0.51521764293536
  N   0.06708069895217     -2.11083307795638     -0.07948402650374
  C   -0.98627452047518     -1.54979520449714      0.52706085498132
  N   -1.68723858471902     -2.44995643448521      1.32682931093560
  H   -1.21155950362862     -3.33454201839800      1.42229148591599
  H   -2.00406179161592     -2.07326673720660      2.20600370427280
  C   -1.57105558976815     -0.33620349867359      0.20423913987938
  C   -3.00274566342713     -0.20677724873215     -0.01684294220390
  C   -3.23117968972882      0.99359992396465     -0.66451911312739
  C   -2.00419077569783      1.67992839686505     -0.79156809869758
  N   -1.92188678142428      2.95731313768489     -1.28850947731992
  H   -2.68875599043612      3.24085291164166     -1.87407441539617
  H   -1.02428032165986      3.23735386772628     -1.64719695597055
  C   -0.94838957470193      0.89998235733676     -0.25851571845202
  C   0.28408904742417      1.44527802448116      0.20447948264511
  N   0.30612177114506      2.80005556348849      0.39489378631810
  H   1.14149093740458      3.21131017062941      0.77747056232494
  H   -0.55397380759539      3.25855666903097      0.63966955507899
  H   -4.18812703987537      1.35421137978675     -1.01032638080857
  N   -3.95143541173336     -1.14351050017595      0.28491628384229
  H   -3.58863115460203     -2.05832865085491      0.51851724318387
  H   -4.75316666668387     -1.16049916576265     -0.32386121398141
  N   2.01786998494887     -2.57613843710528     -1.21515510031514
  C   3.20052595233995     -2.01473198266199     -1.18675699245307
  C   3.23887979983246     -0.73676233725074     -0.52476178398988
  H   4.10287124116843     -0.10367684029649     -0.40461444889735
  H   4.04908332563784     -2.49736781864992     -1.65607257376255
