33
Coordinates from ORCA-job ./opt_b97-3c_parallel
  N   6.17398515589150      0.00352265242783     -1.49887618072896
  C   5.10731021141938      0.00313919102539     -1.03818268386870
  C   3.82467384534941      0.00270200594440     -0.46642702569484
  C   3.06414183360455      1.14242867016855     -0.15033772562457
  C   1.80049606626503      0.73147748108658      0.28617882082850
  C   1.80158655056849     -0.72771356757356      0.28752010575237
  C   0.86762281970911     -1.66062181488389      0.81697858092976
  N   1.38969124958328     -2.73644307262573      1.42511897939888
  H   2.36864934013305     -2.75920573869092      1.64277967389553
  H   0.82687373747662     -3.53292071051856      1.67668047394770
  C   -0.54982734522696     -1.65159148705920      0.61834656948919
  C   -1.20960087643297     -2.79420605813493      1.13326808577347
  N   -1.65702490750328     -3.72536970714473      1.66686665629452
  C   -1.33778853972222     -0.75041557422136     -0.11053501508935
  C   -2.52260291162468     -1.14647413228341     -0.77971130645496
  C   -2.88931919575270     -2.45681944518017     -1.12409331232805
  N   -3.20077668774368     -3.52752542766020     -1.44981101512316
  C   -3.20198247241433     -0.00318042830743     -1.21602366098879
  C   -2.52432421209703      1.14187869006628     -0.78169947590592
  C   -2.89298282956275      2.45106931113453     -1.12838954336215
  N   -3.20601929552129      3.52073936417001     -1.45599285697911
  C   -1.33891599638516      0.74876452370186     -0.11183768418796
  C   -0.55229340889484      1.65241681414674      0.61541099583526
  C   -1.21376257639894      2.79497288984585      1.12828238075472
  N   -1.66255665584776      3.72642993907277      1.66021496776773
  C   0.86515446414872      1.66395143101974      0.81395396812694
  N   1.38562135250505      2.74168964195392      1.42007023288990
  H   2.36455529174497      2.76634543862253      1.63763432221434
  H   0.82160505446934      3.53777428962260      1.67018794912062
  H   -4.08053380832898     -0.00438183037695     -1.83976036310066
  C   3.06584371759486     -1.13757839231159     -0.14823867443432
  H   3.37987140091850     -2.15476593997004     -0.31308883449033
  H   3.37665004127646      2.15977886303264     -0.31705921985727
