26
Coordinates from ORCA-job ./opt_b97-3c_parallel
  N   5.02270777625268      0.21514019662005     -0.14666990865721
  C   3.68254511991536      0.17647314606558     -0.07146555434252
  N   3.02930980637972     -0.98697480568418     -0.11873880626183
  C   1.69919311204042     -0.68238983050077     -0.04912719728807
  C   0.82050358328405     -1.74002801685287     -0.03480863568715
  C   -0.57376240130529     -1.88192850876979      0.03105564972397
  C   -1.64876967446762     -1.03388798541792      0.05616687576947
  C   -2.97489960899816     -1.55605163895049      0.07642498927491
  N   -3.90215076145297     -0.61357436061244      0.04731934435534
  C   -3.23219891366210      0.58280428851479      0.01633677934394
  N   -3.96822882235498      1.73939283856977      0.02751877559033
  H   -3.57727448058978      2.52804943586053     -0.45834638778221
  H   -4.93811492535194      1.58515572718315     -0.19487480938302
  C   -1.83654945999483      0.42618237852975      0.03312148108530
  C   -0.95354778186212      1.50493955675421      0.10214259969065
  C   0.40994366829625      1.66985227868274      0.12332177576606
  C   1.52616563068370      0.81342179139762      0.04314760817053
  C   2.81355431406571      1.30197520757362      0.03101398435012
  H   3.10303032969871      2.34010244336611      0.07721381358117
  H   0.70964131567110      2.70959184023729      0.19879756350430
  H   -1.46935473786007      2.45816183285682      0.17834187280987
  H   -3.23705051609085     -2.60479195442711      0.09198499278688
  H   -0.87347447177679     -2.92579193120824      0.04986134245468
  H   1.35114973604556     -2.68318761697244     -0.08351381363181
  H   5.52500403991917      1.05881798236321      0.05382490148206
  H   5.52377692371504     -0.65466603767899     -0.10324475410577
