35
Coordinates from ORCA-job ./opt_b97-3c_parallel
  N   4.05241644402258      3.51750618972514     -0.78760910775652
  C   3.59258873650253      2.47128249564237     -0.55505078679732
  C   3.08893194651557      1.20279567825868     -0.28091356855335
  C   3.89832616992043      0.05425384647339     -0.11911383734457
  C   3.06585783652935     -1.04254991480305      0.20970138701785
  C   3.52963682775597     -2.34054686119377      0.40364603456409
  N   3.93894109887493     -3.42050006065653      0.56739388250820
  C   1.70763444336760     -0.61239787155782      0.22382445929599
  C   1.73257019682703      0.85027798458314     -0.03689684340905
  C   0.75126453182539      1.80626366613552      0.06298923236805
  C   -0.62192243041587      1.78607371539837      0.32210373728014
  C   -1.62549720922872      0.85177105270465      0.35842453039089
  C   -2.98952614640489      1.30856121578208      0.42590850424289
  C   -3.83007178165719      0.24887259248989      0.06496599492080
  C   -5.21219632200883      0.32331542094781     -0.10800728328898
  N   -6.36591701036321      0.38116344192531     -0.26048030051561
  C   -3.03458537229674     -0.90910902292376     -0.15982089371285
  N   -3.60403741363366     -2.11607891454792     -0.49897484624656
  H   -3.06079894982139     -2.69169848164426     -1.12213010836018
  H   -4.56794151529020     -2.05121132758186     -0.78807714024691
  C   -1.68262863444198     -0.60883724213822      0.08846046874814
  C   -0.70315181759444     -1.59651866048484      0.32995407980984
  N   -1.16102737845499     -2.88490423994817      0.45535492584314
  H   -0.50278754977536     -3.58696357575019      0.74073672263192
  H   -2.10953952063161     -3.03679772510394      0.75518696361143
  C   0.70426017330099     -1.52351325718524      0.45400874894018
  H   1.12325949158691     -2.49615436786436      0.69108348179986
  N   -3.43660352254051      2.54171348477669      0.75920284942359
  H   -2.78744588079830      3.30127068267837      0.84368729724278
  H   -4.36085761430611      2.80462470039208      0.46323686819261
  H   -0.98486890780414      2.80066988851300      0.44848693840724
  H   1.13479782162007      2.81334223390541     -0.05540141652386
  N   5.22327087117246      0.00946160611474     -0.26068858449448
  H   5.72930416781721     -0.84419019433381     -0.10698500677798
  H   5.74283840271789      0.83637453925560     -0.49521551631076
