27
Coordinates from ORCA-job ./opt_b97-3c_parallel
  N   -3.42466301734853     -1.66320804530071      0.54604206556878
  C   -2.69618622848018     -0.45181827374349      0.44861918619394
  C   -3.20628913286407      0.81370705703315      0.72970350878806
  C   -2.21506357700620      1.75926384392222      0.46328066020574
  C   -1.04455078385891      1.09998537253476      0.06713399675016
  C   0.13856407795138      1.83369550091217     -0.21639793763298
  N   1.38830315099836      1.57061546638715      0.11969784451621
  C   2.09905827340496      0.48900506236161      0.23501160848518
  N   3.36092259702291      0.52860654015847      0.71478268628542
  C   3.86230890845736     -0.67375087262945      0.38171652529935
  N   3.07707932980494     -1.53769082124245     -0.27839258424867
  C   1.87707517510243     -0.89780872029177     -0.33309339253304
  C   0.76963081856050     -1.56330198338554     -0.77737876187684
  C   -0.62828304661125     -1.38361349371815     -0.60613194826310
  N   -1.35938171787689     -2.42212815026916     -1.08371823994231
  H   -2.35111154468060     -2.45603427380044     -0.87519926964286
  H   -0.89991849330698     -3.27965842527422     -1.32955557961434
  C   -1.34224912606351     -0.33322845862155      0.02614494052030
  H   1.03535434609875     -2.52435270779344     -1.20610859218907
  H   4.87991321510668     -0.93793264298289      0.63755952493479
  N   -0.02567793810518      3.07983236167461     -0.73235990684813
  H   -0.85259971087550      3.30554243724446     -1.25076899467933
  H   0.79283376575286      3.65238324787341     -0.84121375328472
  H   -2.29001410704644      2.81901915738417      0.64597686978476
  H   -4.19237313568590      1.01773042101609      1.12054958551867
  H   -3.05051117506892     -2.27374586923146      1.26190461197041
  H   -4.39254880088161     -1.48274032751809      0.76819711403417
