32
Coordinates from ORCA-job ./opt_b97-3c_parallel
  N   3.82422443074138      3.18975822382817     -1.02104961711041
  C   3.21110321017758      2.23882533587756     -0.74257413474977
  C   2.57900557125602      1.04475910992084     -0.40113833836641
  C   3.28083028058809     -0.08131226484835      0.11841530774276
  N   4.60214588681368     -0.16038005736412      0.22770586098643
  H   5.18789284568021      0.59494160255445     -0.08373831529364
  H   5.03690244964274     -0.97072979735586      0.63318051660950
  C   2.36674539100646     -1.09236303796120      0.49584806912900
  C   2.74000120679407     -2.36596860478973      0.91687765959355
  N   3.10515574272107     -3.41450128827842      1.27208855335229
  C   1.06039116360420     -0.66234950263147      0.14212414195702
  N   0.06004847704103     -1.47179930397159      0.09818868664384
  C   -1.22741520330398     -1.41689454542428     -0.25024174806238
  N   -1.65238630904944     -2.61442649478173     -0.81144194935446
  H   -2.28337681366033     -2.53405753431238     -1.59304407842847
  H   -0.89665784272213     -3.26551893156028     -0.95790508723722
  C   -2.17984819107062     -0.44537962930783      0.02288439273999
  C   -3.56662810412339     -0.70245046095310      0.21294910303494
  C   -4.22223627916922      0.49555550478848      0.54896765071044
  C   -3.29484473723346      1.52657956722895      0.55329327426131
  N   -3.58437509883266      2.83958189817089      0.77453716732695
  H   -2.85431805026691      3.42572404100827      1.13732099913340
  H   -4.48795308899979      3.04201850418222      1.16366609821959
  C   -1.99196312861008      1.00093679103693      0.20896273511798
  C   -0.96658598769836      1.86127970168703     -0.09754371651003
  N   0.32789025135087      1.77401005756094     -0.43251312118627
  C   1.19130925600586      0.80548330290792     -0.30345357368016
  H   -1.26806347207823      2.90688677112383     -0.08260862454540
  H   -5.27607573034100      0.58896123854029      0.76502494060111
  N   -4.19606605683454     -1.90810919396881      0.12716803170724
  H   -5.06826955983881     -1.98829201286907      0.62156157692433
  H   -3.60488458549024     -2.72340936963859      0.18742287823428
