27
Coordinates from ORCA-job ./opt_b97-3c_parallel
  N   -2.09981744189040     -3.59452743597956     -0.50991849166095
  C   -1.50991365107685     -2.60156163777620     -0.39597749103618
  C   -0.70082738744413     -1.43429145813267     -0.25211679803827
  C   0.66780336689798     -1.70287969168156     -0.28985971296546
  C   1.85620669602434     -0.99220966562104     -0.25187471189928
  C   3.05114025541601     -1.71878386338813     -0.50713271091752
  C   4.12837598116573     -0.85537541113839     -0.50140592937591
  C   3.65939278096385      0.43118169206440     -0.19933829495074
  C   2.26752880101051      0.40588637358134     -0.02876065716471
  C   1.54751215725933      1.55051334542900      0.38558919480260
  N   2.30690279098571      2.62310943227702      0.77720257442806
  H   3.22857972917239      2.45091269789808      1.13165021407155
  H   1.83730282570710      3.40918105185927      1.18730830309629
  C   0.17002007547140      1.83443718662353      0.38814678263329
  C   -1.01329638757511      1.18337226701418      0.11926178053529
  N   -2.15161021058688      1.92234271042621      0.16827275712566
  C   -3.13083094624485      1.03585759621519     -0.05778440632634
  N   -2.75355344696217     -0.26224296587600     -0.23815329378587
  C   -1.42583834504313     -0.23271343418879     -0.14491599835137
  N   -4.41881408785390      1.37822800868923     -0.10326587642749
  H   -5.10911641434293      0.68099537469223     -0.31032854113920
  H   -4.68748628193045      2.33903380903711     -0.00568710398572
  H   -0.04687497586870      2.86354526385084      0.65391597916186
  H   4.28606670050059      1.30843623364765     -0.17511626146670
  H   5.15531101289406     -1.11443072789364     -0.70681943258772
  H   3.07672876329531     -2.77754572854716     -0.71180789902602
  H   0.85163854755528     -2.76084045368192     -0.43534964675375
