27
Coordinates from ORCA-job ./opt_b97-3c_parallel
  N   -2.89919979880289     -3.12391327203834      0.20985578484250
  C   -2.12305614719674     -2.26048100530841      0.18766292718681
  C   -1.16364286772713     -1.20306151196517      0.15733653446468
  C   0.13729161205074     -1.67529669825250      0.19009924501825
  C   1.43179413903495     -1.14552226256994      0.19084657371507
  C   2.50294569085769     -2.03991912686706      0.33872123582919
  C   3.71436549067304     -1.34495876384218      0.27324785381196
  C   3.44461247962846     -0.00543930745415      0.04201259469646
  C   2.04035442898571      0.18835973664429     -0.01429861661223
  C   1.48596992760090      1.44026061311130     -0.27386494807854
  N   2.34800458286875      2.44353691368531     -0.64644253869848
  H   1.95268854398277      3.29729235860812     -0.99522115900444
  H   3.21249262251344      2.18099184441473     -1.08187035464450
  C   0.15429357480837      1.93261479561270     -0.09663819475727
  C   -1.10325197449645      1.45013885348119      0.08804695789379
  C   -2.18513708154683      2.39672088167661      0.17522091021319
  C   -3.36357287914153      1.71328673351109      0.25303217428122
  C   -3.09816914910178      0.31328982162557      0.22753897903853
  C   -1.73810327079205      0.09539981915808      0.14449134920433
  H   -3.84611757963902     -0.46011657673609      0.28104187836227
  H   -4.34808778074600      2.15086876601419      0.32126606643425
  H   -2.05168707115681      3.46646816443491      0.15378877821343
  H   0.14532636590911      3.01844118998656     -0.13890166849498
  H   4.19434097606454      0.76869141519919      0.01511833842424
  H   4.69655667330159     -1.77503219235319      0.39598861072618
  H   2.38645556465802     -3.10169355813014      0.48905055432632
  H   0.16781641450991     -2.75589143904665      0.26243566390778
