31
Coordinates from ORCA-job ./opt_b97-3c_parallel
  N   3.94724194951366      1.96214636056959      0.62966200645568
  C   3.22739229175164      1.09053672660581      0.34672429815207
  C   2.48767514224546     -0.06304227689300      0.08320501517361
  C   3.06339690330970     -1.37763334002650      0.33523201060509
  C   2.09737684207981     -2.34671060709763      0.13221631823205
  C   0.89899916848815     -1.71801925371786     -0.24657788853939
  N   -0.10773219364520     -2.42858123916046     -0.69022975040071
  C   -1.39679230806224     -2.18969138995881     -0.85437600305058
  C   -2.25030234935502     -1.23266505536679     -0.33542607832710
  C   -3.61744733465967     -1.58274779502793     -0.13478988035292
  C   -4.22240232306939     -0.61915564095140      0.63218702730435
  C   -3.28451123227491      0.42200838866375      0.86425216580076
  N   -3.61427123488059      1.59672296008601      1.51270208248916
  H   -4.45124634958570      1.54019176537654      2.06899943159427
  H   -2.86301941644699      2.04401547873023      2.01330490287682
  C   -2.05183952420709      0.08976374631268      0.25564043891469
  C   -1.08918485028231      1.05729458317700     -0.14957988338864
  N   -1.51139593862921      2.34615927400496     -0.16020958561938
  H   -2.49646652212385      2.54298033951065     -0.16878407432286
  H   -0.89496583760014      3.07308712462973     -0.48160269454485
  C   0.27488975098031      0.86127696699109     -0.51988932255899
  C   0.90244568701921      2.00471212326129     -1.06797207755692
  N   1.33256783244136      2.96272758986264     -1.57125424417629
  C   1.14218199600677     -0.21734980397865     -0.22146703332491
  H   -5.23468425507340     -0.63321240959696      1.00770152271166
  H   -4.05166659355497     -2.52034740189701     -0.44422365236012
  H   -1.90599076681015     -3.00256474136502     -1.36850777774066
  H   2.22934345544844     -3.41448159041800      0.16265519413351
  N   4.33611172145850     -1.53188462789219      0.70662424890027
  H   4.70315577330027     -2.43313974635455      0.94852349347432
  H   4.93306579031722     -0.73101128478115      0.82497821564447
