33
Coordinates from ORCA-job ./opt_b97-3c_parallel
  N   -4.36434934406989     -2.50503472953570      0.63803106146988
  C   -3.76354869607451     -1.50798455301980      0.62468763844121
  C   -3.00042472179552     -0.33800988190700      0.56270832744251
  C   -3.30529585505379      0.91998288533534      1.02779508634443
  N   -2.30015677985164      1.81847675178462      0.76610525819967
  C   -1.30457533661036      1.14940859624008      0.19938672222846
  C   -1.65825223222615     -0.24698870450006      0.01143325647230
  C   -1.07956991594880     -1.28494243773382     -0.68161000341911
  C   0.24625601721407     -1.63157352943149     -0.97835415620869
  N   0.44061487358970     -2.82470718385763     -1.71032905050521
  H   1.11344342223126     -2.72544689037910     -2.45572970562585
  H   -0.41647984821964     -3.20769489523609     -2.07905302413124
  C   1.36693687991527     -1.10068990499537     -0.32734873749757
  C   1.59321310510249      0.19446801306801      0.16516969155086
  C   2.73784756155154      0.12101766541141      1.01401146613460
  C   3.22142165068525     -1.21089825830941      1.07944090085207
  C   2.44492405874211     -1.97465017551383      0.24168091535576
  N   2.54508320725536     -3.30163816821288      0.01504518411436
  H   2.99296314549883     -3.86558655155666      0.71801639454926
  H   1.77940787786447     -3.72405917387948     -0.49823814196644
  H   4.03585838736781     -1.55797317566563      1.69431031786423
  N   3.27470956838688      1.16613748908346      1.66238402417834
  H   2.97142087828718      2.09647235509474      1.42688404147546
  H   4.16431562237148      1.07490157066296      2.11795687394405
  C   1.11248838912701      1.46660108355910     -0.37455981374420
  N   2.11883383498021      2.31215837074110     -0.79611749583608
  H   1.83166720581904      3.14059810617388     -1.29723318948125
  H   2.93092291918427      1.85995613584998     -1.18274886794088
  C   -0.18813245609856      1.88432111782142     -0.37243080138972
  C   -0.46314389453625      3.15446807902704     -0.92753954554287
  N   -0.57257109702464      4.20397223536388     -1.41783328903456
  H   -1.78691357137031     -2.06968719348731     -0.94588284456522
  H   -4.19947759980667      1.23027463080323      1.54411611677169
