28
Coordinates from ORCA-job ./opt_b97-3c_parallel
  N   6.11293026598788      1.47064365759973     -0.35705097994496
  C   5.00742835553798      1.14051015165338     -0.22101427069057
  C   3.67325993058877      0.73157598050087     -0.05311992503506
  C   2.55005377790466      1.56874699185424     -0.00158562786018
  C   1.39400112232543      0.78023334725046      0.13713925863229
  C   1.85681699834758     -0.60527688202819      0.22406479057438
  C   1.09207761149121     -1.76044780197288      0.49245360223738
  N   -0.06412987237957     -2.07759800962899     -0.07577795926731
  C   -1.17513868029979     -1.53393288915067     -0.42505019338494
  C   -2.16598438896694     -2.31067043410679     -1.11983236962324
  C   -3.33346448115069     -1.62701411572403     -1.08577194844489
  C   -3.14742762470305     -0.34630152822354     -0.42749222737563
  C   -4.20718312996829      0.56672332278052     -0.35298903759913
  N   -5.15931162700981      1.23451165160425     -0.35698918924492
  C   -1.81271906616694     -0.20950770237779     -0.06108364178552
  C   -1.18275915340055      0.97776367629765      0.38361738153156
  C   -2.03812626649477      2.03155363859867      0.82365874779136
  N   -2.65175417754696      2.91793977501544      1.25331032950215
  C   0.15243218859861      1.38318303456874      0.35029624077097
  H   0.24990580742836      2.44929993181042      0.51685536306543
  H   -4.28589907461885     -1.95088615807429     -1.47445599611066
  H   -1.98814316445371     -3.30662047866082     -1.48634770218215
  N   1.63308845109161     -2.73972131223305      1.24020439696983
  H   1.16777727843150     -3.62785170670712      1.30899358228642
  H   2.42716927356059     -2.55534846189597      1.82399663537762
  C   3.24567586768964     -0.60302129087863      0.11847876854662
  H   3.88862630517404     -1.46762610776629      0.11474838674956
  H   2.56563406878754      2.64454790429356     -0.05809816279637
