26
Coordinates from ORCA-job ./opt_b97-3c_parallel
  N   -4.42295383055357     -1.52971762438101     -0.66764599200857
  C   -3.60436923448433     -0.74521557520983     -0.41102985593455
  C   -2.71552747512951      0.31251016379586     -0.17867762067119
  C   -3.13980085531454      1.70381664470453     -0.26271524716427
  N   -2.16088119689425      2.53101875568215     -0.09341998050642
  C   -0.99797740901140      1.74645350998817      0.08374538062695
  C   0.14666584507333      2.47609943197420      0.19995225270533
  C   1.53227915294807      2.18606597627550      0.23376630719499
  C   2.24315226773740      1.03695236215414      0.08305731891845
  C   1.93161979003097     -0.37626032760879     -0.02919081578841
  C   0.77165879145219     -1.12999072017497      0.21266702678544
  C   -0.57802615425522     -0.87780162655561      0.31058853082074
  C   -1.31511648485975     -2.02630952640191      0.71756308331495
  N   -1.84653981741969     -2.98717716221469      1.09687558987708
  C   -1.35144132166926      0.31502442893303      0.06224720081826
  H   0.98965684881043     -2.17842924122140      0.38780986413849
  C   3.18527099704567     -0.98259867152705     -0.20079099262595
  N   4.24075573690775     -0.06714301801504     -0.20122855793164
  C   3.69315332960032      1.09821969966088     -0.01754033750313
  H   4.27985546087179      2.00585978017713      0.02003158960339
  N   3.49969962361987     -2.27785875055160     -0.34007299415238
  H   2.80710508719384     -2.96762377161457     -0.56317767354028
  H   4.46065644505818     -2.50895198097095     -0.51752437065601
  H   2.14598224822869      3.07536994668458      0.32301625700130
  H   -0.07247684775471      3.53666348197138      0.20966849188147
  H   -4.15328002503229      2.02916293594585     -0.45017460600398
