29
Coordinates from ORCA-job ./opt_b97-3c_parallel
  N   -4.70349104132426     -1.34892336883277     -0.81970633768955
  C   -3.92069446613205     -0.51496695145957     -0.60384119600843
  C   -2.96528314216149      0.46944588503974     -0.34166555304086
  C   -3.11332273487672      1.83705030096298     -0.38936850879244
  C   -1.91207256051669      2.48768559275420      0.01022903347897
  C   -0.94167205623017      1.55491418935725      0.29679079478988
  N   0.29166838031795      1.87754052976049      0.69323524138492
  C   1.44433630570155      1.29380689702172      0.51097855031676
  N   2.51117438717498      2.04184297966506      0.95215892543146
  H   2.26019020280993      2.85680108254241      1.48661685801922
  H   3.34826223713293      1.56010409958083      1.23230363955843
  C   1.79499833638227      0.06039923072049     -0.15434807472282
  C   3.02246217413709     -0.17419228324796     -0.79606516379031
  C   3.16760014967166     -1.57495671531990     -1.02522696297234
  C   2.08746779082284     -2.22004097398013     -0.47484145666017
  C   1.19486759096776     -1.24263519857440      0.05625854457679
  C   -0.04184431795210     -1.59072762078486      0.61003779328678
  N   -1.21696792041441     -0.99385291839453      0.36152299406303
  C   -1.60770105075173      0.19783664992128      0.11618575747035
  N   -0.17103644008881     -2.74578129258005      1.31361905833841
  H   -1.06614583430337     -3.20577914782183      1.30558168983698
  H   0.64607508102026     -3.29940794857921      1.49490576602351
  H   1.86794687944816     -3.27250444658429     -0.56105437854522
  H   3.99222587516478     -2.03469324179810     -1.54911997307467
  N   4.00868948942849      0.74221449771845     -1.09466664890717
  H   3.70397663207118      1.69680381656869     -1.19086460564554
  H   4.63938933170811      0.46044253175454     -1.82617802562969
  H   -1.76338086647770      3.55327404589318      0.06202624525096
  H   -4.02038956662976      2.34363818459591     -0.68137292914687
