26
Coordinates from ORCA-job ./opt_b97-3c_parallel
  N   -0.27080338944025     -3.18456400969858     -0.74747683649792
  C   0.00779821709091     -1.90520456536550     -0.37574364652914
  C   1.40212459814420     -1.63014125146777     -0.29255677872221
  C   2.13423896822111     -0.50915500212097     -0.05870853255157
  N   3.46651233248924     -0.63911035912618      0.24382291812741
  C   3.85533058942784      0.60624791267612      0.48226424113505
  N   2.95582220803453      1.60897379329097      0.30451364158321
  C   1.83196939832018      0.98359720068920     -0.05967152010023
  N   0.79968474520140      1.67649980723374     -0.48465064983802
  C   -0.48065149816826      1.41041354708226     -0.61011174698588
  N   -1.15687931338984      2.33435245503835     -1.33004867739735
  H   -0.68007212036167      3.18576228320015     -1.57044926776292
  H   -2.15779313491300      2.28532913147243     -1.41709959318364
  C   -1.27124135833481      0.35991473417334     -0.02952583491710
  C   -2.59528890473074      0.52617841799559      0.39126000903580
  N   -3.20306618707748     -0.65629169269804      0.68992432380020
  C   -2.31755654376372     -1.60497437491490      0.40256321849704
  C   -1.07099985082227     -1.07992753389170     -0.03167131859009
  H   -2.53916422652970     -2.63762436344424      0.63186912700288
  N   -3.32641050505325      1.70206023831545      0.48649480783012
  H   -2.82960523294223      2.47065347112779      0.91045490718216
  H   -4.20320016010991      1.53666543509444      0.95765619086922
  H   4.86379959457672      0.82647182308168      0.80591598526547
  H   2.03031750091562     -2.51441991146929     -0.34022651790584
  H   0.43426158129656     -3.89603227586643     -0.68030491202759
  H   -1.22224803828174     -3.49310681280836     -0.81448902651900
