31
Coordinates from ORCA-job ./opt_b97-3c_parallel
  N   -5.23493511658680     -0.14223445146252     -0.93031459235690
  C   -4.18421451715057      0.19120708549795     -0.55871405091713
  C   -2.98726537088752      0.73234567556213     -0.07769901751001
  C   -2.95218488983954      1.97145414510105      0.65277392440924
  N   -1.75993574531356      2.30559154809739      1.06838488140029
  C   -0.89915218068962      1.32958936454437      0.56940976101307
  C   -1.67991427216369      0.22678407883131     -0.06260942316546
  C   -1.29600856070405     -1.09965124116164     -0.34607411544589
  C   -2.27515587448149     -1.97322576356818     -0.89365611543567
  N   -2.98954529926051     -2.76499256811124     -1.35468333751744
  C   -0.11957936818702     -1.79698806066971     -0.00849674831634
  C   1.18549899930208     -1.44948224750461      0.24578173205978
  C   1.94940210221175     -0.24881351628928     -0.10309144148591
  C   3.31538982978491     -0.71295738778108     -0.19856663715821
  N   3.43969219555722     -2.00202028842813      0.13153883697019
  C   2.19568189637336     -2.45484769409925      0.39698944615934
  N   2.00956102764596     -3.74792698126236      0.69687727903420
  H   2.82377066915676     -4.32915809345770      0.78449186067042
  H   1.17646723760011     -4.05177867924232      1.16417445144945
  N   4.41380857729983      0.02375469114583     -0.46926316118293
  H   5.28391523063981     -0.39708150441893     -0.18466538919177
  H   4.34786027419661      1.02090163779162     -0.33872318665723
  C   1.56790808947826      1.05879209762040     -0.15956700296871
  N   2.37016785252546      1.97665510894504     -0.79014257648474
  H   2.78938822470912      1.69475112282511     -1.66039349231593
  H   2.08830101519392      2.94239300961866     -0.76166588900596
  C   0.42546606183962      1.65216340923754      0.56898080840530
  C   0.78685931233798      2.86013669211585      1.22596240378381
  N   1.23315590765001      3.82127234573648      1.70265229579380
  H   -0.28219089883120     -2.86960711077624     -0.02296801847513
  H   -3.81792302800125      2.58388524086626      0.86305909834559
