24
Coordinates from ORCA-job ./opt_b97-3c_parallel
  N   -0.15776949437195     -4.26308310439569      0.29336918495914
  C   -0.23315225708458     -3.10719382245992      0.21980204767279
  C   -0.32708440438728     -1.68568845428951      0.14317335554840
  C   -1.61947184316334     -1.24493052024585     -0.15463408362676
  C   -2.24781659410487     -0.01055750068335     -0.24203080112596
  C   -1.85983316983734      1.35576280978161      0.15609696192270
  C   -0.65480594319289      1.91915883929268      0.48613216516229
  N   0.58280993399983      1.54555041499230      0.18648921056938
  C   1.23980440807359      0.45504453831759      0.02635682218289
  C   2.65479354605950      0.50028169254390     -0.27146135195389
  C   3.36977048363932      1.67461230638146     -0.53509593121439
  N   3.96392878809254      2.64616674140064     -0.76575157140451
  C   3.16781961783798     -0.76636725792746     -0.06391178780578
  C   2.13020986653692     -1.67141674637147      0.26368593237491
  C   0.91385781975095     -1.01733131143657      0.25759740528526
  H   2.26431391255606     -2.73206619304664      0.39441089959292
  H   4.21243209005935     -1.02486023946980     -0.13845742277372
  H   -0.69519818726831      2.90052927653380      0.95274634783213
  C   -3.07494802603298      2.08609164202637      0.14334502759540
  N   -4.11087336112646      1.33889732590760     -0.23983615725956
  C   -3.62881389069171      0.09000638036765     -0.45405055193238
  H   -4.29307789669583     -0.72104645766092     -0.71374649842917
  H   -3.18770087427827      3.13755521108002      0.36287414501986
  H   -2.30190516067019     -2.06663783633832     -0.34004606079272
