30
Coordinates from ORCA-job ./opt_b97-3c_parallel
  N   1.66368139093329      3.67916565719293     -0.70795261423233
  C   1.16993170367359      2.64942751764514     -0.48846403001886
  C   0.58789384966039      1.38105995102145     -0.21621068112738
  C   1.53503213985530      0.33872538798731     -0.03564250153061
  C   1.31938752045547     -1.15864693176399      0.20706027209804
  N   0.32027874578655     -1.93776981262981     -0.06545609041298
  C   -0.95895019948432     -1.84617105206885     -0.41241529250115
  N   -1.39262340646334     -2.94854710175945     -1.10591366442867
  H   -0.67987761348825     -3.60908524031564     -1.36267435192134
  H   -2.15471114966465     -2.83283840557621     -1.74774865105439
  C   -1.92683098440352     -0.91352270944939     -0.01422563525702
  C   -3.28567046894330     -1.23818699936687      0.12997189130069
  C   -3.99874469919284     -0.10752758357004      0.52486190461672
  C   -3.11215296781562      0.97269526007939      0.59509983996669
  N   -3.45223426679639      2.28083786968237      0.87623082568113
  H   -2.79241165093424      2.79105128986369      1.43928091748698
  H   -4.39026749859158      2.40174493993082      1.21876603545791
  C   -1.79791769715155      0.52081910315637      0.25766423558578
  C   -0.78943866573041      1.43591845413066      0.00969203282331
  H   -1.15240042443341      2.45873720015018     -0.00741671374016
  H   -5.05244982995021     -0.07184147192930      0.75815656600140
  H   -3.69324784102179     -2.23273151466277      0.04112794272732
  C   2.55860696181708     -1.68510603593270      0.62965351465713
  C   3.50536804563161     -0.67660237154034      0.53700030411877
  N   4.81816084224709     -0.76318810662555      0.81541045766400
  H   5.23495694131270     -1.64822956183129      1.03757878434186
  H   5.44058549640769     -0.02425523738080      0.54537852227356
  C   2.88012393980632      0.54786716634612      0.10740151146650
  H   3.38279848990534      1.49862284887444      0.03114226339432
  H   2.73455388887285     -2.72995352005771      0.82119802136300
