24
Coordinates from ORCA-job ./opt_b97-3c_parallel
  N   -2.13358398269248     -3.38820887174143      0.00649246367729
  C   -1.52679893089451     -2.39846329617674      0.00520369238032
  C   -0.76948441760545     -1.18695623934039      0.00299384307450
  C   0.59906069996060     -1.43108007687926      0.00356676947992
  C   1.77188448648733     -0.68025547253859      0.00192321906082
  C   2.07752866215754      0.78415398592168     -0.00141017671027
  C   1.29806580738120      1.91061217731722     -0.00346726077048
  C   -0.07830750682235      2.18214737591672     -0.00342140963897
  C   -1.23534998406044      1.44572758855975     -0.00169968807167
  N   -2.40078555230273      2.17738929724751     -0.00273611267872
  C   -3.39327085080924      1.29631660637081     -0.00121535981198
  C   -2.95158379870524     -0.04394506630340      0.00092612270860
  C   -1.56783534141130     -0.01312861988283      0.00078894595093
  H   -3.57155705616012     -0.92433156395740      0.00245839458640
  H   -4.42191599053113      1.62996718300261     -0.00166269578659
  H   -0.30740532823964      3.24086864758223     -0.00527095077165
  H   1.88818683632932      2.82128559220727     -0.00557612222473
  C   3.49435787792227      0.89266919669681     -0.00201766573147
  C   4.04615317473273     -0.37070334616091      0.00076671383667
  C   3.00697539079329     -1.32469056335388      0.00316802101128
  H   3.13628661300507     -2.39584856863607      0.00553278788578
  H   5.10077173902496     -0.59975528368076      0.00107474456398
  H   4.02914004093804      1.82913781283138     -0.00421987038512
  H   0.81741373120229     -2.49279642050233      0.00578457946514
