37
Coordinates from ORCA-job ./opt_b97-3c_parallel
  N   6.05354321661897      0.82079409419976      1.74031998859337
  C   5.02576727329819      0.76274315658388      1.19769792374044
  C   3.79575344008257      0.60860246623423      0.54809996705920
  C   2.97123383004053      1.60399436171342      0.02259813389234
  C   1.76793305435264      1.01171638232459     -0.40802935864628
  C   1.87691496295855     -0.41906199169268     -0.19243974170458
  C   1.11879765671278     -1.45225634957539     -0.83634159046289
  C   -0.29181109250853     -1.54878083286268     -0.88116406131626
  C   -0.80204063823613     -2.66372308096617     -1.58182503596821
  N   -1.13590133342778     -3.57751270263452     -2.22077608589561
  C   -1.22262152401356     -0.79063314787886     -0.12535499181633
  C   -2.36408769229010     -1.36213974724653      0.44151868859510
  C   -2.67910392054665     -2.71182195476435      0.61928111820571
  N   -3.02113576875888     -3.79927325580075      0.85288202458586
  C   -3.17763140125040     -0.32211142077916      0.99891704467807
  C   -2.56680737638950      0.92137896864332      0.72625834598389
  C   -3.08951765483659      2.11968759038705      1.21828099339747
  N   -3.59848620492340      3.04932608768853      1.69923428505079
  C   -1.35997982445700      0.68623901149186      0.02597505580251
  C   -0.66336854201283      1.70065374536806     -0.64058897074480
  C   -1.41844918556865      2.84397211090533     -0.99643974132682
  N   -1.96279762499279      3.79247904130537     -1.39242860643156
  C   0.73386178337207      1.81375894171102     -0.94430593384693
  N   1.12029672995091      2.89104791082548     -1.65410447396025
  H   2.08506815612714      2.99690277735298     -1.90527356034096
  H   0.49189006992610      3.65346650458456     -1.84717233542479
  N   -4.28660718297203     -0.51591043799396      1.69692438477787
  H   -4.79272103310007      0.26310416551136      2.08388266814690
  H   -4.64015916068317     -1.44411123034348      1.85709323846117
  N   1.82294763441396     -2.45529183334768     -1.38545437653788
  H   1.36767716973807     -3.28004718486782     -1.74098966410855
  H   2.82679317514145     -2.45364552317924     -1.32575740601851
  C   3.14082124052140     -0.64603640125071      0.37900679915006
  N   3.72527406425748     -1.86419874724260      0.67042136231995
  H   3.11299695923818     -2.54506206847593      1.09204521530333
  H   4.59004155389166     -1.78724297807344      1.18444010109209
  H   3.16006089522688      2.66152453104518      0.09876973531080
