27
Coordinates from ORCA-job ./opt_b97-3c_parallel
  N   -4.60361775801796     -1.81672157520916     -0.96072987164360
  C   -3.91042419757804     -0.95717258518266     -0.58898385791409
  C   -3.05321321225808      0.05703353223309     -0.15794456926660
  C   -3.42896817568709      1.22038504705395      0.55130138405911
  C   -2.31607663348230      1.96808260924143      0.88787378049536
  C   -1.16715946384413      1.33967157759757      0.36281982367193
  N   -0.02218934469882      1.95711109288479      0.30065706004342
  C   1.20966833605026      1.69781506949076     -0.11119786444170
  N   1.86391119803974      2.80607772078281     -0.54725925671408
  H   2.67478490377479      2.71722601624583     -1.12966731255367
  H   1.34876377456737      3.66827014583385     -0.57270501521127
  C   1.96754702481267      0.50799543062905     -0.00484425428996
  C   3.34798804322708      0.46782666607318      0.13474786053740
  N   3.84780637042371     -0.79576875215979      0.21296261007987
  C   2.80659557291535     -1.61364942371017      0.08106288382744
  N   2.97165962224919     -2.96698250682295      0.05422742285327
  H   3.89316897193882     -3.26604228882460      0.32802679461791
  H   2.23541527366671     -3.53427489060885      0.43568767537448
  C   1.55523901846129     -0.89623370803181     -0.07406672636491
  C   0.38833966390826     -1.52939697151502     -0.41173173334690
  C   -0.94976137229253     -1.12648845799399     -0.55523619271974
  C   -1.63508231052566      0.01634924095974     -0.23119795351232
  H   -1.60029097114352     -1.93335296034740     -0.87538991485391
  H   0.50794609195903     -2.59221672403488     -0.59597140229511
  H   4.01044494621293      1.31198714872604      0.25504849007644
  H   -2.30595499524684      2.93648922591439      1.35788852190169
  H   -4.45172842653325      1.47635704907581      0.78272911518613
