29
Coordinates from ORCA-job ./opt_b97-3c_parallel
  N   0.47004531488895      4.55704806856317     -0.11889916985183
  C   0.27426580252437      3.41310806919519     -0.11793840745737
  C   -0.11326191125631      2.03772050815319     -0.09794384458259
  C   -1.52274382886940      1.89467007888582     -0.05749657451479
  C   -2.39754249546745      0.85184941344166     -0.08258637565858
  C   -2.28591578080517     -0.61227453186670     -0.08793282874964
  C   -1.23872879103503     -1.48381099882112      0.07628562547375
  C   0.16097528145429     -1.40886927132643      0.14196961786806
  C   0.71597803934539     -2.68047846701805      0.46327187616347
  N   1.07180069976885     -3.74265416130421      0.77206574087128
  C   1.08855645605578     -0.36115481426785     -0.08015776997245
  C   0.95636705777482      1.14326385009340     -0.17331598104628
  N   2.17754068967419      1.71100518367778     -0.31981737987431
  C   3.06930432804422      0.72696327294989     -0.35411406271464
  C   2.46058931480569     -0.57500767614522     -0.20687818961363
  C   3.24688828517829     -1.72564072275017     -0.29973346854843
  N   4.06112351521711     -2.54776008285559     -0.42921933994838
  N   4.36618690658012      0.94169650975079     -0.51773519944578
  H   4.70166345123511      1.88341775879478     -0.62418515583468
  H   5.01806984767309      0.17681260014602     -0.55532222145130
  H   -1.56037730383314     -2.51312639409281      0.19002824661397
  C   -3.64238482283501     -1.04978300664775     -0.13564690142262
  N   -4.52772046264197     -0.00748070781722     -0.15110054350202
  C   -3.80030828594177      1.09552889497258     -0.10968883472875
  H   -4.26473760686811      2.07153482287619     -0.10749891459597
  N   -4.12723121905124     -2.29786182420919     -0.19775849737112
  H   -5.11845118165265     -2.42033964017304     -0.09470034938013
  H   -3.54364966609221     -3.10664580119663     -0.10105223789576
  H   -2.02085599887349      2.85686247849349     -0.03288233722859
