30
Coordinates from ORCA-job ./opt_b97-3c_parallel
  N   -3.79987059912020     -1.86862998987224     -0.62420970014111
  C   -3.05607646558962     -1.01703964650578     -0.34448933901787
  C   -2.28492246756049      0.11817802845941     -0.08716104829789
  C   -2.85271334192469      1.43675994766903     -0.21892545958967
  C   -1.85137108434076      2.37472318106934      0.00956979961085
  C   -0.63545634572889      1.70967313496763      0.21929190514300
  C   0.52794315324704      2.43158408570597      0.44737611290405
  C   1.87840677520117      2.13449223189779      0.37881485546447
  C   2.61853902969505      1.00407756613811      0.07697249204663
  C   3.98459055211615      1.15078611731478     -0.29492343222073
  C   4.48286953381906     -0.07502027928034     -0.68237077341106
  C   3.47778371021407     -1.04387235030108     -0.48880649910477
  C   2.31209742468888     -0.42820743326080     -0.01960656094984
  C   1.23462889411883     -1.19065212817533      0.51216667013733
  N   1.57012847165768     -2.45757641761871      0.86416711555117
  H   0.88024635927401     -3.09166786464464      1.22873000685478
  H   2.53053225230955     -2.66028021320822      1.06585526767776
  C   -0.14709573940928     -0.86062566752985      0.64562809144478
  C   -0.91071961664786     -1.88233838780323      1.26656240909385
  N   -1.44826230382274     -2.73316267956314      1.85093947884525
  C   -0.92107270598952      0.23885547498078      0.19885989907690
  H   3.58205654835429     -2.09282111572954     -0.71766189774284
  H   5.46690614555326     -0.26793363727755     -1.08073997847015
  H   4.49838184298693      2.09866656866076     -0.33424131396177
  H   2.50108215787808      3.01831218087611      0.47447341830755
  H   0.33452984772059      3.49026674980355      0.58211858759933
  H   -1.96647685670300      3.44589358738480     -0.02342475466433
  N   -4.13578051784686      1.65047307447072     -0.52852280046991
  H   -4.75078114373311      0.87578054453089     -0.70960660372278
  H   -4.49154093423338      2.57647669392222     -0.67238899771729
