29
Coordinates from ORCA-job ./opt_b97-3c_parallel
  N   -4.92862311593137     -2.17249402449056     -0.66132057793688
  C   -4.25595685336447     -1.22727558796250     -0.58381162559525
  C   -3.44233380388375     -0.09474728088696     -0.48433917401747
  C   -3.74135706819907      1.22031675744964     -0.87026214751579
  N   -2.78038082423345      2.12348581483320     -0.61561702416094
  C   -1.75739953035476      1.44962776853834     -0.05216058591054
  N   -0.67252885715625      2.06989021327796      0.28329836424951
  C   0.58846623485719      1.73353022944513      0.51959446125395
  N   1.30218698663011      2.72667273132926      1.08700943177869
  H   2.28650573212929      2.61468513612689      1.26294988338558
  H   0.88950186181036      3.64139204572295      1.14610211561847
  C   1.29093006985512      0.54546004315549      0.15209292452688
  C   2.64344690790134      0.52708116523856     -0.23185787462545
  C   3.08692824198130     -0.82163604038504     -0.24294307354240
  C   4.37127561834481     -1.21557620805377     -0.63571552784887
  N   5.45340978169798     -1.47995359118200     -0.97277764189533
  C   2.03255842522006     -1.63891618083476      0.19570720370775
  C   0.91205436933933     -0.83886848585399      0.42272483306543
  C   -0.29825172578108     -1.35903067804154      0.95228056541997
  N   -1.54108274142677     -1.05739951775764      0.60089652225773
  C   -2.14805177724830     -0.04398783458203      0.08485362620149
  N   -0.21637059443570     -2.40585089098808      1.80142658128806
  H   -1.04646811648380     -2.93319683174946      2.00925729703927
  H   0.65225652568485     -2.65316097091881      2.23514109809537
  H   2.06507372201828     -2.71379447209850      0.25548062493301
  N   3.45937714521525      1.61825252287980     -0.48921927151620
  H   3.02894879179404      2.34186034283035     -1.04428965410306
  H   4.35318486183253      1.35988804007678     -0.88045385183582
  H   -4.66656648371219      1.53344849858165     -1.33341801021724
