31
Coordinates from ORCA-job ./opt_b97-3c_parallel
  N   -1.67144191077298     -4.58213162548679     -0.69856767149864
  C   -1.69790987957401     -3.43618945462399     -0.51000710121635
  C   -1.78317769832486     -2.04624276808030     -0.32895803351512
  C   -2.83746289189641     -1.28959003327617     -0.76023074547334
  C   -2.51839639043492      0.09944590187667     -0.58663779837497
  C   -3.39066487160676      1.14287473913656     -0.92797248132007
  N   -4.11870737833883      1.98544667105310     -1.26049680448551
  C   -1.22506699098874      0.22957758127237     -0.09122070534440
  C   -0.75178223104149      1.47584708704939      0.46086106126633
  C   -1.70846960734247      2.23686720951153      1.16709525676451
  N   -2.42749958827361      2.90320236120915      1.79557335519822
  C   0.48704116107709      2.09354736399048      0.27602866584566
  N   0.60477614588556      3.39772215039689      0.60445809421798
  H   -0.17543824667942      3.88867503116858      1.01096278967927
  H   1.51559183458103      3.79664710468466      0.73847550239617
  C   1.67722984891791      1.49814938512737     -0.27716834038695
  C   2.24913954810183      0.20689311048377      0.00784038562801
  C   3.66459124896286      0.35465222882740     -0.46149236468464
  N   3.88409105732510      1.54074542289906     -0.99348010965576
  C   2.71269228152227      2.22911219917488     -0.84164037525074
  H   2.66620058842373      3.26050336983328     -1.16012846156036
  N   4.59932906628268     -0.60006267307571     -0.44928270603922
  H   4.41263798700408     -1.54104753253805     -0.16071521333410
  H   5.46503152336900     -0.41956076571888     -0.92732630405493
  C   1.79679880794451     -0.97673523664129      0.49751659110690
  C   0.50377662330529     -1.58280759415088      0.56307553416319
  C   0.58390815947852     -2.90564932196585      1.09069771164410
  N   0.75838337324837     -3.92441332682521      1.61829982088096
  C   -0.71177324149765     -1.13861521367257      0.08293690309563
  H   2.56955997315842     -1.68340001869244      0.77429023091654
  H   -3.74137033171632     -1.66341329324720     -1.21086630600926
