33
Coordinates from ORCA-job ./opt_b97-3c_parallel
  N   4.71875673376653      1.43957631118029      1.46565832624844
  C   3.95040925157361      0.60516749412542      1.20919739346377
  C   3.02803517854347     -0.41634103143878      0.95624331830976
  C   3.03630802430170     -1.73788976205603      1.57601230856053
  N   2.05118442486583     -2.48690598158528      1.17743755222962
  C   1.31152500600324     -1.70334672948473      0.27977179916206
  N   0.33832968554965     -2.26856465471635     -0.37115658995066
  C   -0.76763596909735     -1.82428060615855     -0.92972424892330
  N   -1.47018753715000     -2.75780631261973     -1.68862998994003
  H   -0.94677375268065     -3.60970207221670     -1.82969876473454
  H   -1.85811313093011     -2.39603822778642     -2.54590434886568
  C   -1.44012022656773     -0.64548496779150     -0.54429574389895
  C   -0.88368626757882      0.60906914850594     -0.19597811628096
  C   -1.89520100514568      1.35009018044024      0.46054432509445
  C   -3.08489953645090      0.55642804171116      0.55776957569783
  C   -4.26548710823470      0.92879503367564      1.19629716291372
  N   -5.25049597406594      1.25068399716572      1.72972551933589
  C   -2.83084814930592     -0.65892401642040     -0.08467457770699
  N   -3.68046024842261     -1.68747625451600     -0.19703034464308
  H   -3.32490065489925     -2.55364210907914     -0.57645115677850
  H   -4.49336515782249     -1.72129872992711      0.39508731367604
  N   -1.81831932727896      2.62366610533428      0.86960382153783
  H   -0.93744274198176      3.10540197934715      0.86793719864122
  H   -2.57543239029318      3.03475504284744      1.38681618273062
  C   0.28184913519907      1.21810319841418     -0.83696213842819
  N   0.03980516688147      2.38860060328259     -1.49509848550807
  H   0.78218486155821      2.78445619549613     -2.05155764038952
  H   -0.89225027754032      2.55079734755805     -1.83414609145533
  C   1.55078967554960      0.70289117574815     -0.75388568016593
  C   2.56489361171374      1.32281317272346     -1.51379373849824
  N   3.33807318517620      1.87737184865533     -2.18412662560944
  C   1.91198094933678     -0.37320169457401      0.14793672203252
  H   3.76576216682616     -2.07780363383936      2.29725036704239
