33
Coordinates from ORCA-job ./opt_b97-3c_parallel
  N   5.69895281476278      0.32646126347312     -1.19959014674298
  C   4.61424561523513      0.36167759305926     -0.77690283997786
  C   3.30289776871954      0.33010215035940     -0.29090908580540
  C   2.59510467823275      1.35878342303258      0.34839589675939
  C   1.28276511344190      0.92208319742844      0.56235290467084
  C   0.29768588835675      1.77908865358661      1.12399567555768
  N   -0.91589402410955      2.01410558540953      0.66021977117560
  C   -1.77461590296711      1.32854553248678     -0.04167063738647
  C   -2.83625770036342      1.93146132964929     -0.72922620640579
  C   -3.73524580645966      0.92877121136848     -1.07880632589934
  N   -4.88992745190553      1.07506588590632     -1.74016578064409
  H   -5.51254548122609      0.29956320295992     -1.86995369616251
  H   -5.20810762633135      1.97828896728434     -2.03886899900314
  C   -3.24513137210015     -0.35370890391474     -0.63425150912966
  C   -2.01841272060135     -0.18389432584110     -0.06238630949613
  C   -1.22960203151360     -1.24597452601222      0.47118122046721
  C   -1.97179213691749     -2.39991186460793      0.80630286573782
  N   -2.55371697307510     -3.37153009756079      1.07910908153403
  C   0.17223374618329     -1.41638865477477      0.44911735118525
  N   0.64735979833831     -2.64231324123905      0.76579621405584
  H   0.02651649737766     -3.42878406834699      0.85176254974714
  H   1.63207357221663     -2.82743939103034      0.66385029009814
  C   1.16928817787834     -0.44304139786430      0.09036221068956
  C   2.43690263710039     -0.78746004711812     -0.41940078071098
  N   2.84439050431498     -2.03489942485622     -0.89437468975764
  H   3.78134709867776     -2.01380613891131     -1.27056485065455
  H   2.21405006650912     -2.43617448372962     -1.57315903452434
  H   -3.74437044936598     -1.29480709955414     -0.80022822721692
  H   -2.96383988801972      2.99355796447972     -0.84867141109080
  N   0.68170389469869      2.58665307669069      2.13699279956687
  H   1.57589970029995      2.46442036044860      2.57244483425438
  H   0.10786020684234      3.37306655975500      2.38526176584785
  H   2.96289435806976      2.35779163487707      0.51358886486114
