30
Coordinates from ORCA-job ./opt_b97-3c_parallel
  N   -5.97363710725249     -0.48923883247654      0.46775445009610
  C   -4.83024497122813     -0.42395869228215      0.26012291989976
  C   -3.46469983788961     -0.27554878690259     -0.00604826682793
  C   -2.45500404955162     -1.25161284449007      0.12697573975030
  C   -1.20623591376336     -0.69086919650027     -0.13036718195202
  C   -1.44377672891778      0.72205152895039     -0.48101022743885
  C   -0.64451155355336      1.75466324424604     -0.93202752909938
  C   0.70975863538422      2.04097983834757     -0.92270735454872
  C   1.80143764419201      1.41222133009353     -0.34941636320104
  N   2.96085011383314      2.08713285800025     -0.24356452246679
  C   3.79567531289669      1.21733659620913      0.36305276323906
  N   3.30154554397569     -0.01538003215798      0.63682372945846
  C   2.03614516698979      0.02986842532805      0.20402840405640
  C   1.32481910614813     -1.17956504784389      0.13689066479927
  C   2.15075212685618     -2.31012715741719      0.37921846779036
  N   2.72078221073263     -3.31244423787612      0.53038422596906
  C   -0.04369647963110     -1.51322932279567     -0.13137735338081
  N   -0.28355824504007     -2.83309885145804     -0.29079598415783
  H   0.44827544154861     -3.51485610158978     -0.18500713598790
  H   -1.16979365938259     -3.14351469831418     -0.63665602127825
  N   5.04404416653245      1.54556771033705      0.68653754048465
  H   5.39643570886509      2.45774489442237      0.46429283845046
  H   5.63934282530326      0.86821611223898      1.12598665316464
  H   0.97188872459149      3.00919462407931     -1.32936991428647
  H   -1.21938774717334      2.57576619034721     -1.34854574374364
  C   -2.85982929879120      0.92916846088045     -0.39541804245112
  N   -3.53197256738751      2.08937691229390     -0.66501053742236
  H   -3.08307117626348      2.95000687156213     -0.40475659479035
  H   -4.50986403570022      2.08164502406348     -0.42348623049496
  H   -2.64889920462319     -2.24935426189510      0.48270485986818
