30
Coordinates from ORCA-job ./opt_b97-3c_parallel
  N   4.52084573667571      0.98987832004160     -0.64031815825806
  C   3.65361058204764      0.22504306735452     -0.51211137763499
  C   2.63163715909723     -0.72749491426806     -0.43196869503915
  C   2.77386639742077     -2.08800327896149     -0.96858918858772
  C   1.60934813144995     -2.74464120540408     -0.82883198925865
  C   0.66104438726523     -1.85243361628010     -0.17796025335119
  N   -0.47115817000316     -2.30028764983249      0.24037231042013
  C   -1.59970268651649     -1.70641971107293      0.65129899896248
  N   -2.35052002898025     -2.45041170663025      1.48831148705899
  H   -2.13444106642370     -3.42392139196960      1.61730753482348
  H   -3.20465944923345     -2.08168993124220      1.86279061519398
  C   -2.13055415318377     -0.52354481324871      0.11222598679410
  C   -3.46208990816155     -0.43005449063476     -0.38390021460198
  N   -3.68542775905953      0.72530901004439     -0.99465678268252
  C   -2.52941747566836      1.44940809057622     -0.86162134869353
  N   -2.52138439642389      2.75529324307237     -1.27957071896913
  H   -3.31537285558840      2.98738616816116     -1.85453953973935
  H   -1.64927736621149      3.10731687945743     -1.63859747381281
  C   -1.50675453197425      0.72624578003961     -0.21923216134758
  C   -0.35090493797791      1.30317947943532      0.41897891687077
  N   -0.46701610188888      2.59938580434455      0.78347914757756
  H   -1.37135591919719      3.03466929000104      0.80636114882379
  H   0.29350265584357      3.06667718521714      1.24820203014628
  C   0.86532211274646      0.65214427845611      0.67315773277615
  C   1.78299234835869      1.35585497205944      1.48079995627564
  N   2.46540660610099      1.97813136979663      2.19067415175596
  C   1.34523811028125     -0.53680722843497      0.02526158960869
  H   -4.18795406762823     -1.23010075118199     -0.41382913198923
  H   1.36875267741097     -3.75326762509420     -1.11723052231456
  H   3.68479439172614     -2.45370044309848     -1.41458516580651
