34
Coordinates from ORCA-job ./opt_b97-3c_parallel
  N   -1.43305485084585     -4.20208595766916     -1.04822141208897
  C   -1.22442745798041     -3.09928948440565     -0.75006269341279
  C   -0.84221349436729     -1.78236212642809     -0.36048825649556
  C   0.53013105793416     -1.69926686258229     -0.02078504883503
  C   1.46000801180659     -0.72538739498494      0.19530332804471
  C   1.45276983321890      0.75746033187917      0.13438170895611
  C   2.79190513996273      1.14971828849900     -0.04117133288213
  C   3.64279064984891      0.00998550982190      0.04646731627800
  C   5.03069185759205      0.02652587785534     -0.09160155807175
  N   6.18924331134731      0.04635812029853     -0.21279987860860
  C   2.85188221168936     -1.12469781596277      0.24770192186868
  N   3.34589454201790     -2.36457370262781      0.42101341962952
  H   4.30099444879096     -2.55094802403693      0.17115956884596
  H   2.74128953297021     -3.16209082984224      0.47436555140650
  N   3.30526137585067      2.41081215042658     -0.20204143269534
  H   2.72314206434385      3.06597595580238     -0.69752448214696
  H   4.26858017323846      2.44211829362507     -0.49693297479171
  C   0.42392055103614      1.64893790257071      0.50489374835899
  N   0.81395268215205      2.92895330167619      0.82561047868551
  H   0.11103860153949      3.53998578894467      1.20116218389380
  H   1.73638649025097      3.06790660030479      1.20306170391845
  C   -0.97179820833932      1.47298564264254      0.59677452996131
  C   -1.90785356456107      0.55338444682207      0.17855418539254
  C   -1.87414857390131     -0.84849550794104     -0.34553757540156
  N   -3.10933811074503     -1.25281697952743     -0.70166063746120
  C   -3.95178914539698     -0.24898282725067     -0.40134483610142
  C   -3.28786945423387      0.86853381227955      0.17625147903009
  C   -3.88610636616040      2.06699576094165      0.54998242721027
  N   -4.40555398321253      3.06360251100816      0.86176141202809
  N   -5.25521630535796     -0.34896305823139     -0.65119132964959
  H   -5.61086199696133     -1.19376738620123     -1.06183601475232
  H   -5.89329478850136      0.38470412038538     -0.40267159913402
  H   -1.45754580497172      2.35886726628895      0.99349073192561
  H   0.95518995484550     -2.69501623328169     -0.02353022940528
