24
Coordinates from ORCA-job ./opt_b97-3c_parallel
  N   6.14297794478206      0.57577813714553      0.26005998914978
  C   4.99386460156254      0.42281589358696      0.19329885265393
  C   3.60177259800976      0.23635044573874      0.11481065546643
  C   2.63393977480209      1.24835588928124      0.21769606366206
  C   1.36089163057804      0.68073958432834      0.07961400617905
  C   1.57421240420171     -0.77935015911987     -0.11705731886757
  C   0.69991935082361     -1.84510524389603     -0.30871595537684
  N   -0.56855264939358     -2.03763326249278     -0.03456637316219
  C   -1.63931610578255     -1.31738136216481      0.12367521141338
  N   -2.78936310931080     -1.95054490678440      0.48922226587146
  C   -3.76834950429727     -1.05878885472405      0.37870109281723
  C   -3.33316567050486      0.22008985360057     -0.04629072824790
  C   -4.11940773131790      1.36442039568942     -0.21663209141940
  N   -4.75488359664887      2.32799684714332     -0.35847080546646
  C   -1.93250270314795      0.14351510382879     -0.14998841095858
  C   -1.12528449169203      1.26519006146278     -0.20415761831912
  C   0.23786296634215      1.48652872794018     -0.04276059534562
  H   0.48149703441864      2.54237244181214      0.00446709555090
  H   -1.69270945815645      2.18565380445339     -0.28958564760646
  H   -4.79120217372986     -1.32878695879748      0.59848396375248
  H   1.18892825474275     -2.75126742549742     -0.66326299046251
  C   2.95453508815888     -0.99176599860736     -0.11599617576277
  H   3.44401583824292     -1.94350589550134     -0.23906311186121
  H   2.83895060811658      2.29887371177141      0.34141054634116
