25
Coordinates from ORCA-job ./opt_b97-3c_parallel
  N   1.15480018723732      2.86510760353932      0.76191447231917
  C   0.60681624748571      1.67393961448493      0.40177802041206
  C   -0.80514269680274      1.64984039085961      0.52680976460346
  C   -1.77270072450497      0.73770318603775      0.21710980062491
  N   -3.06811999224578      1.14360612313618      0.09891947789711
  C   -3.70068159356695      0.05013700284437     -0.33981377706992
  N   -2.99805815951900     -1.09460856849153     -0.45854342523217
  C   -1.75401376035228     -0.74910232388328     -0.07970030053649
  N   -0.85280240552775     -1.66077498024356      0.16302303290389
  C   0.44759245398744     -1.65811282509779      0.36279658292005
  N   0.90598611610953     -2.78092923580331      0.96664739657931
  H   0.24216535838174     -3.49387786693239      1.21334132327495
  H   1.83441351970181     -2.81616646387421      1.34117933718074
  C   1.43987724406220     -0.75072708907875     -0.12294765337898
  C   2.66860119399632     -1.20658432103966     -0.61027417270350
  C   3.45949804488719     -0.10284806040822     -0.96120215528399
  C   2.76631485075309      1.05372473083478     -0.63618440398357
  C   1.48895104588412      0.70757017069614     -0.12915346023817
  H   3.10881102268814      2.05587467280690     -0.84326616621221
  H   4.43052050059107     -0.14662077861314     -1.42967405552790
  H   2.92238749699437     -2.24357187709416     -0.76405412867037
  H   -4.75272895137156      0.08043862891109     -0.58979255776884
  H   -1.23937422222280      2.60560240873256      0.80275067059047
  H   0.58175242743643      3.67800828251387      0.89086787453851
  H   2.14700276321763      2.99714222416239      0.72910969426163
