29
Coordinates from ORCA-job ./opt_b97-3c_parallel
  N   4.81979010326524      0.64285100137123     -0.71861390391752
  C   3.57419511183741      0.32471800619986     -0.35731242861993
  N   2.72643145469397      1.31958606725179      0.00600763702375
  C   1.55649031318675      0.72299650310419      0.27809716652538
  N   0.55087713578002      1.43047716832851      0.69963107676301
  C   -0.76744055762360      1.28892435105782      0.67225421358932
  N   -1.41611821102216      2.20083585385177      1.43949847416943
  H   -2.41362719083861      2.30012743754612      1.32760770422593
  H   -0.88875878839399      3.00468272055080      1.73406564173828
  C   -1.56546219988125      0.41004925856750     -0.11316952808022
  C   -2.83410499241314      0.75373326834137     -0.63912479122200
  C   -3.44347185163439     -0.39838701028849     -1.14513295298640
  C   -2.60512995292131     -1.48588087948317     -0.88869772771272
  C   -1.42572714083730     -1.02793612708412     -0.28094936386124
  C   -0.44214017748966     -1.91407786034316      0.24232378839872
  N   0.86900283518447     -1.80024895044118      0.31098451115234
  C   1.70509130128167     -0.81072545228025      0.08787042874572
  C   3.01978177713410     -0.97313141399844     -0.30046246972990
  H   3.50855702321849     -1.90902938154509     -0.51311095689031
  N   -0.89480213118034     -3.15612816358433      0.60753373349470
  H   -1.82523320400377     -3.23191702306695      0.97405952987940
  H   -0.19990198562650     -3.77886547498678      0.98194376539462
  H   -2.79137449770189     -2.50928995203540     -1.17333528526147
  H   -4.39652385662744     -0.43232863159934     -1.65291548003999
  N   -3.41067257230405      2.04128805260740     -0.60731114993377
  H   -4.28447736439546      2.05951721441932     -1.11145574843040
  H   -2.80272202789535      2.74700211444362     -1.00092469235245
  H   5.08094534382148      1.61237668080435     -0.74753505715157
  H   5.47095441198696     -0.04892411800910     -1.03696757091071
