31
Coordinates from ORCA-job ./opt_b97-3c_parallel
  N   -0.92554525609625     -3.92666081296418      1.59351280247501
  C   -0.68505852620582     -2.91878518393021      1.06145831935927
  C   -0.45904633279044     -1.67817127871041      0.42561394375445
  C   0.77934557482854     -1.58050702815259     -0.28664676629373
  C   1.48725689124399     -2.66915764956750     -0.73928647589722
  C   2.70286486113810     -2.17611604611164     -1.29785142937887
  N   2.83829910734296     -0.87215799840858     -1.17740573930180
  C   1.69398399588797     -0.43413788035217     -0.53073593575417
  C   1.72055601628471      0.84247179290280     -0.02760536912855
  C   2.98124365570693      1.50255854153596     -0.11689549701167
  N   3.93563254572052      2.16345451117170     -0.08117715741265
  C   0.67136562652739      1.68389046460654      0.51601335749663
  N   1.07643710359313      2.73915000684314      1.26232206462762
  H   2.02706213293428      3.06881484762594      1.21375010267883
  H   0.38359223969819      3.38400972698225      1.59538694179168
  C   -0.67521493488671      1.62278828317179      0.14443962325259
  C   -1.37122425315293      2.84337927149539     -0.14953918394187
  C   -2.60287045363318      2.53811136895941     -0.66451934951369
  C   -2.76616136920475      1.12375753625243     -0.62990514256345
  N   -3.94528671633133      0.49533391375425     -0.96599849753153
  H   -3.86717902561308     -0.45759399273175     -1.28052461425813
  H   -4.56747834520604      1.04031067322038     -1.53845169721883
  C   -1.58473724416455      0.53061694900288     -0.14365694527622
  C   -1.54953434401410     -0.80196981910788      0.40122210347714
  N   -2.73494586566216     -1.26135542778681      0.88417574045387
  H   -3.45098056120645     -0.60247240831163      1.12891325883274
  H   -2.78098378109236     -2.16938609564308      1.31521421577736
  H   -3.31062040944849      3.23461066785466     -1.08767157861656
  H   -0.91407589542871      3.81961350378328     -0.16863103455156
  H   3.45790669594226     -2.76430874316654     -1.80197663536682
  H   1.16584989029009     -3.69690953761762     -0.69968733006139
