31
Coordinates from ORCA-job ./opt_b97-3c_parallel
  N   3.14669535610269      3.37135096013362     -0.75847601044637
  C   2.61045760483061      2.37176693444589     -0.51025599287734
  C   1.85144358150928      1.19978598598377     -0.22560334557210
  C   2.62438361410445      0.04473017514888      0.06210598862826
  N   3.93311981794449      0.15692730782771      0.19122555640474
  C   4.40758175813518     -1.06781325588194      0.64642652004373
  C   3.42765726923892     -1.99142633836163      0.80854858878341
  C   2.20293530158244     -1.35753840040835      0.38413553044535
  C   1.08206198561973     -2.07831203744224      0.16111240263442
  C   -0.22384864766512     -1.83707880475833     -0.40431989145642
  N   -0.75147631938432     -2.98291607859906     -0.98012583712560
  H   -1.38690471352556     -2.83511060577510     -1.74831387649931
  H   -0.08245292767655     -3.70823276501674     -1.17602878980619
  C   -1.02626674928590     -0.72462625387638     -0.27636974437387
  C   -0.67768214929057      0.68591507299356      0.03399798430411
  C   -1.90181077680132      1.37383776121415      0.17616548662550
  C   -2.97940788492347      0.47678243920042     -0.05723901532559
  C   -4.33597754077374      0.77591696574114      0.07806041499882
  N   -5.46898702227762      1.01914338906853      0.19559854566635
  C   -2.45889282974729     -0.78932802094815     -0.35283561744479
  N   -3.23860490762731     -1.88932480558919     -0.58915728272138
  H   -4.20716565193765     -1.77946896351445     -0.32971635133319
  H   -2.85334987893174     -2.77421789044567     -0.29651189795609
  N   -2.07404655324790      2.69958759114556      0.41164683582195
  H   -3.01365427071715      3.02166605062263      0.56700732293347
  H   -1.38162830334050      3.18163360721018      0.95579597869012
  C   0.48541934314092      1.43357258013558     -0.12323471640678
  H   0.27182210901325      2.49375399419580     -0.20610799014106
  H   1.20154003700133     -3.13234147385602      0.40234553113344
  H   3.52443789324838     -3.02158224750217      1.11009038853373
  H   5.46532566887739     -1.18463230549243      0.82839750044357
