30
Coordinates from ORCA-job ./opt_b97-3c_parallel
  N   -4.78226221233078     -1.75509840957712     -0.23351205177752
  C   -4.01140813894827     -0.88394740375475     -0.21276664154131
  C   -3.10584060584603      0.18130348565454     -0.20167521911969
  C   -3.36975792026202      1.54829317243938     -0.60512466712921
  N   -2.35006686416848      2.33579876000116     -0.41626674875062
  C   -1.31193563929611      1.52081863210886      0.07632786965569
  C   -1.79308935596657      0.14772453327778      0.24607705047022
  N   -1.26213422754822     -0.93006472082626      0.87448134282483
  C   -0.06360338761785     -1.38470489687642      0.77543173028357
  N   0.15920089308704     -2.59680883401530      1.39838636027605
  H   -0.60486125090733     -2.89859795172941      1.98258724059592
  H   1.07890846195789     -2.76224630224610      1.77173390861718
  C   1.09184209312340     -0.86419490765756      0.04803256381357
  C   2.06379062228153     -1.67648096595671     -0.57072573117650
  N   3.20923391734589     -1.00305992555700     -0.90868433453474
  C   3.04553039218855      0.22276084725148     -0.44779875702712
  N   3.98040150659813      1.17466734386848     -0.61720627417917
  H   4.66616105507481      0.99886833228154     -1.33348603477758
  H   3.69181414229925      2.12997401576690     -0.44894780750928
  C   1.70342703831146      0.41816439959999      0.15829725050576
  C   1.20895954710334      1.66816778664747      0.50956185208405
  N   2.15746171377186      2.67328072045775      0.81210026924759
  H   1.73246069268235      3.56517638741576      1.01144111732562
  H   2.77240181253466      2.41928780651447      1.57124771246585
  C   -0.11651541543166      2.12655962977328      0.32466628449667
  H   -0.19757046730671      3.20790980285398      0.24553476120708
  N   2.00387924526115     -2.99511185726489     -0.82149329289964
  H   1.13724847032561     -3.48878801314713     -0.70805483121652
  H   2.71817965864276     -3.39476781202588     -1.40257551514572
  H   -4.30636137865972      1.90898271482148     -1.00695324008437
