29
Coordinates from ORCA-job ./opt_b97-3c_parallel
  N   3.04476937017653      2.74621810384501     -0.87723628408267
  C   2.34340186561809      1.88279297629930     -0.53516442410642
  C   1.37865193590744      0.91545174417640     -0.16305713142482
  C   1.92874769330166     -0.36860537446624      0.25788784454137
  N   3.12334875057009     -0.37354417114937      0.80460338246679
  C   3.53603408707456     -1.70837746438912      0.89794932767906
  C   2.64155171309250     -2.55291927131718      0.33341803362241
  C   1.52585089813281     -1.74083557703221     -0.09521505154087
  C   0.43213649036766     -2.27955262437152     -0.71823798346639
  C   -0.88705433475737     -1.83124442946441     -0.90905879913823
  C   -1.53354713412113     -0.72211872585107     -0.41801446654429
  C   -1.12071944570599      0.53786505787845      0.08470755767415
  C   -2.29072914313873      1.10098123907600      0.64696420255369
  N   -3.40965988046613      0.30229231632365      0.52975707218452
  C   -3.00077789518918     -0.75577340336343     -0.13030836507381
  N   -3.83337783161474     -1.75638448670209     -0.45071953169601
  H   -4.74837181800868     -1.74996304971226     -0.03468685420691
  H   -3.47592232364705     -2.64241253795928     -0.75197729670030
  N   -2.41336993920777      2.26667718276169      1.28580249576529
  H   -3.33286392819964      2.57955411463219      1.54190838218745
  H   -1.64722653016636      2.91950014801180      1.27184072570740
  C   0.07106695798679      1.32180707753830     -0.20644929217511
  N   -0.21515362536927      2.65377387535004     -0.48569537174626
  H   -1.02731264224408      2.78949536290978     -1.06787921404626
  H   0.57421119467961      3.20430780050758     -0.79335112122383
  H   -1.52513408972541     -2.58498985091315     -1.35731819947777
  H   0.56866214298142     -3.31490138745901     -1.01561127271453
  H   2.69109704107845     -3.62792720785116      0.26258674135046
  H   4.47507140509326     -1.93857031560885      1.37624318903224
