30
Coordinates from ORCA-job ./opt_b97-3c_parallel
  N   3.77868962347695      3.46557863432605     -0.49645045027793
  C   3.28500552760544      2.41881200384287     -0.39620624838891
  C   2.68342459956512      1.15963269309339     -0.27239080195244
  C   3.21422650779422     -0.05233703537926     -0.57939684627206
  C   2.22963015322926     -1.08211946454056     -0.31086552472010
  C   2.45351166785396     -2.43408272875151     -0.60606368645984
  N   2.66597928068542     -3.53666811353400     -0.90704327788946
  C   1.05264597046034     -0.50945067857360      0.14467800679972
  C   1.31085405523262      0.94588440693856      0.21843349412450
  N   0.65276756432116      1.94419407319609      0.69535169564634
  C   -0.62958878282332      2.18973636888479      0.96685543722008
  C   -1.75280126314062      1.60649456952338      0.42191345085094
  C   -2.90719460329227      2.44035415703420      0.14522017292853
  C   -3.75116180828933      1.75684782053752     -0.66380092910560
  C   -3.22412343515884      0.41916027183358     -0.83847020051887
  N   -3.90950135616408     -0.54495298514913     -1.49558166854015
  H   -4.67584353713989     -0.27374714945983     -2.08465040189755
  H   -3.43729370121972     -1.39433233274303     -1.75235484680424
  C   -1.99525098080437      0.30849671806299     -0.16833176121092
  C   -1.44530291789069     -0.94366060412467      0.29567990064702
  N   -2.35922756361810     -1.94402811990048      0.45820999568789
  H   -2.04592076139590     -2.81461296854823      0.85828172211421
  H   -3.30522517613928     -1.68629051081764      0.67803330083569
  C   -0.10649510142387     -1.24412636575363      0.56315367351557
  C   0.12863807980454     -2.49175702810449      1.18331069057350
  N   0.23751752604808     -3.51068652131055      1.73567440240278
  H   -4.66159225561459      2.12165730966230     -1.11413358368603
  H   -2.98732347876345      3.47469164655342      0.43868353702857
  H   -0.77908873965511      3.12113905975897      1.50361031437155
  H   4.19555689655528     -0.24303481715655     -0.98020789102279
