31
Coordinates from ORCA-job ./opt_b97-3c_parallel
  N   -4.72921432276173     -2.65170573384455     -0.05755291512641
  C   -4.12163893318334     -1.65528960483639     -0.06757607492239
  C   -3.43650321435127     -0.44487360591732     -0.07391834097128
  C   -4.04204181539522      0.80378562576543      0.10386255999153
  C   -3.03493291575678      1.81792730088754      0.07016258560803
  C   -1.79707913216774      1.24952396111449     -0.11477676492364
  N   -0.73412075388628      2.06101389867472     -0.26249948455843
  C   0.55265040971192      1.86295377344568     -0.28839719301637
  C   1.46015844244135      0.80513479117052     -0.10400229835035
  C   2.83890457229622      1.06801743863270     -0.04115018325696
  C   3.56260358392569     -0.16817704945720      0.03433389449045
  C   4.94494032880637     -0.29239249305463      0.17044203165899
  N   6.09941340440453     -0.39237244851846      0.29321456075408
  C   2.64617049089876     -1.21576734556486      0.01318930600898
  N   2.97514902591724     -2.52807340474986      0.04060283550226
  H   3.92501945362611     -2.76033641275703      0.27605638805444
  H   2.29513029779091     -3.19145575108950      0.36373213330712
  C   1.30923200765145     -0.65966152778696     -0.08485483349323
  C   0.23361566458217     -1.48629067742449     -0.20447725376518
  C   -1.16794359931834     -1.31263149236990     -0.24053638739443
  C   -2.01355632141586     -0.24550386960866     -0.17631651938016
  H   -1.69186176766385     -2.26189867448576     -0.27860375996643
  H   0.48903764176169     -2.53874913382998     -0.26157131088928
  N   3.47722312922409      2.26171858208757     -0.07875066280179
  H   2.97284218012908      3.09283739640664      0.16841965771461
  H   4.45467487120656      2.27644541203571      0.15582459969474
  H   1.07054157097650      2.80154533801811     -0.49572362468210
  H   -3.20670931458057      2.88028830909211      0.12922015897621
  N   -5.35092097013478      1.02586110362653      0.26296038631152
  H   -5.70447751453297      1.94607985550340      0.44335876540795
  H   -6.00008624850003      0.25893481583609      0.28858340491847
