30
Coordinates from ORCA-job ./opt_b97-3c_parallel
  N   -4.01818796375741     -2.61699913033560      0.29855002628909
  C   -3.29757413419019     -1.70232933123946      0.26254759236303
  C   -2.50574096937979     -0.55680999684096      0.24101639937549
  C   -2.99117228883158      0.75696564810767      0.42389081604053
  C   -1.93907944871701      1.69090867816612      0.20860818766980
  C   -0.77035641633192      1.01430051602772     -0.05234048401925
  C   -1.14088618856919     -0.46506046065928     -0.12545557981372
  N   -0.51266770005607     -1.48398573677439     -0.62070273581088
  C   0.75881173114858     -1.80839815717714     -0.80460919487608
  N   0.95338793908883     -2.78971538689001     -1.70540220329693
  H   0.16113729811001     -3.29964901161434     -2.05671882815661
  H   1.88117284900473     -3.09829563177006     -1.92761089730761
  C   1.87030892647813     -1.36807281168850     -0.04696309886797
  C   2.86096558479846     -2.23079308751706      0.45734306933476
  N   3.77070265732492     -1.57667477831177      1.19824933725525
  C   3.43292799437977     -0.27348637226735      1.13145293351671
  C   2.24769020501225     -0.05476330058592      0.40424810629072
  C   1.79555599785996      1.23841805780199      0.01202528559407
  N   2.75245397026266      2.19235578298818     -0.01065971753250
  H   3.71717556387032      1.92226713267146     -0.00941188097679
  H   2.53167573203692      3.15889675581316     -0.17702967351139
  C   0.47082156872853      1.66430607308521     -0.27594005837010
  C   0.34402846868505      3.03470400352013     -0.60274043175435
  N   0.27211284979955      4.16503634154063     -0.87198585659140
  H   4.01512356913475      0.46956314362241      1.65751477211595
  H   2.87052172923137     -3.30888125449905      0.38088921953748
  H   -2.03565550413677      2.75857276498307      0.31706345806932
  N   -4.24122795323879      1.06692418748684      0.75638681805518
  H   -4.92735402380685      0.34470194743166      0.89575531415430
  H   -4.54542793183918      2.02139539542832      0.81198368832539
