36
Coordinates from ORCA-job ./opt_b97-3c_parallel
  N   -4.21033968153157     -3.22396894387527      0.93765841750907
  C   -3.69792470533454     -2.21256283107156      0.66220019580566
  C   -3.10455943424108     -0.99691453463666      0.33809639134621
  C   -3.76520757988791      0.05539696486367     -0.35039500094763
  C   -2.84206451633601      1.09266925749069     -0.63461867660605
  C   -3.19616349110844      2.33064096430235     -1.16441210008064
  N   -3.55060013494628      3.34292516916086     -1.62037589477345
  C   -1.59320080679382      0.73345331792077     -0.06459527813116
  N   -0.65156046338174      1.58927209888674      0.15706655214453
  C   0.57233975560253      1.56592423670649      0.66973039217625
  N   0.87262676198388      2.73267111480807      1.35391456719212
  H   1.44357088614531      2.62990285620795      2.17724546318210
  H   0.08025216747533      3.34516695329237      1.46735157017721
  C   1.61701609626797      0.66869779881470      0.42971574847705
  C   2.95465352248741      1.10869167320540      0.24237309697677
  C   3.71457565790812      0.02068127791564     -0.24675036237439
  C   5.04830377139367      0.07463565331393     -0.65092554277771
  N   6.16024585780018      0.11246806346907     -0.99778693510710
  C   2.88280489991467     -1.11537611646965     -0.32423464642184
  N   3.35815236659942     -2.35130109844972     -0.70080682361983
  H   2.70775487043098     -2.92537998485546     -1.21395749724573
  H   4.26624313657798     -2.32483365624451     -1.13907497574017
  C   1.57707387998311     -0.77356462633145      0.11256147737657
  C   0.62046069973099     -1.73034641546398      0.50418955500583
  N   1.04181129234814     -3.03356724026985      0.59499061658756
  H   2.01209877573362     -3.22025499972328      0.78738244615379
  H   0.39165050063728     -3.71272232547613      0.94566111608117
  C   -0.76910126739261     -1.59747634167838      0.77401265636140
  C   -1.72188000995538     -0.68119994598551      0.42199190585794
  H   -1.20909222188058     -2.52264605133766      1.13341045366490
  N   3.47343641212016      2.35425082219626      0.41742806977658
  H   2.80659355908415      3.10989013979880      0.46660160677722
  H   4.30799834902440      2.56076196327876     -0.10763443137329
  N   -5.05409164025501      0.06474245063234     -0.68129203160798
  H   -5.66148788093494     -0.68803152115880     -0.41040867157047
  H   -5.44773086447087      0.83852609796257     -1.18700590995179
