33
Coordinates from ORCA-job ./opt_b97-3c_parallel
  N   -4.28072481108672     -2.08238258689861     -1.35284449926897
  C   -3.61046828147495     -1.20970144641009     -0.96419105428739
  C   -2.88501580866058     -0.11399463160672     -0.51042524429992
  C   -3.47469998162889      1.12604307320772     -0.12430081633609
  C   -2.51540971651216      1.94788744606085      0.48715053970793
  C   -1.27188549004185      1.30861565812541      0.43922049008091
  C   -1.54082037495931     -0.09861767390330     -0.06546800892388
  N   -0.83880532715971     -1.17735869764409      0.05560157529360
  C   0.39692450973975     -1.48048501504185      0.44345105096451
  N   0.45771863444465     -2.73797069231739      1.02965241227889
  H   -0.45245209264817     -3.13892753117891      1.19201790111237
  H   1.09946347232277     -2.83485762833858      1.79984065345763
  C   1.60114085551917     -0.83873687027392      0.16559009615015
  C   2.81438879327411     -1.53632627205929     -0.10951640639853
  N   3.77358388805115     -0.72082152925673     -0.57988845549072
  C   3.25362346454252      0.51928482742597     -0.58182975681418
  N   4.07413743073617      1.57056332986417     -0.94944475617563
  H   3.62540733511837      2.27673109906530     -1.51310300527938
  H   4.92276798167630      1.23051213072458     -1.37618632949002
  C   1.91120012094245      0.56816167216738     -0.12543276513742
  C   1.26187374963225      1.74013190213139      0.30582963611171
  N   2.01972347191740      2.89447180219217      0.32727819829590
  H   1.60597486163308      3.69210591995736      0.77498948778034
  H   3.01209365320421      2.79735431773029      0.47690417050145
  C   -0.08194301402713      1.95909783936026      0.68771147752525
  H   -0.24585665756574      2.96420258979576      1.06741489615505
  N   3.06917690752184     -2.87461087254120     -0.00390300048497
  H   2.25628037377382     -3.47238930462574     -0.01594495060331
  H   3.82568893888077     -3.18076453810794     -0.59484790509313
  H   -2.66798981800957      2.98224111365459      0.75353133460790
  N   -4.75783402080904      1.43706378292590     -0.36040383215242
  H   -5.37519730768553      0.73538927748522     -0.73136620401456
  H   -5.18078057616169      2.22407842743266      0.09520367252632
