29
Coordinates from ORCA-job ./opt_b97-3c_parallel
  N   -6.09189457255953     -1.20620195226735      0.34749444161070
  C   -4.96179552939891     -1.01658835488898      0.15799775271702
  C   -3.59705584641072     -0.77071071721847     -0.07334916285520
  C   -2.65551841564785     -1.68915607743025     -0.49912854574363
  C   -1.37961145121724     -1.06266390318041     -0.51498167387544
  C   -0.27288284166874     -1.84379277191453     -0.77323014180359
  C   1.09833631555719     -1.69849841382470     -0.57568822265197
  C   1.90346707517680     -0.70415782799120     -0.07659257215381
  C   1.70763076598481      0.75905343958265      0.19746251465227
  C   2.94365651971810      1.23857531806033      0.64612354609407
  C   3.87015051538359      0.19945669087434      0.68472232508130
  C   3.27084490288000     -0.97704797023133      0.22428050445980
  C   3.88467185700213     -2.22996392965824      0.10981298632683
  N   4.37787861541294     -3.27785849604405      0.00027220418740
  H   4.89209026046822      0.27933135310740      1.01978118959763
  H   3.14814520008950      2.25802874245855      0.92370866026390
  C   0.64800658056572      1.64671012801129     -0.09137663892893
  C   1.07625136681033      3.00276356655864     -0.14241507698533
  N   1.37095262067394      4.12483346133917     -0.21237137144842
  C   -0.76108276229432      1.50921661553740     -0.26631275370955
  N   -1.44693833684180      2.66236049896081     -0.46486211550484
  H   -2.37174930687055      2.61817779227360     -0.84844090869058
  H   -0.97381633584740      3.54799588872763     -0.51750024012463
  C   -1.59571858969754      0.35380574459473     -0.15501958423361
  C   -2.95096074884410      0.48539061626077      0.11317941931648
  H   -3.45717674031380      1.37094789886715      0.45798223947933
  H   1.64496047051473     -2.61215302748368     -0.78122631576424
  H   -0.53824712193087     -2.84277528557289     -1.10035644509184
  H   -2.83073571649384     -2.73174937820822     -0.70391430952150
