27
Coordinates from ORCA-job ./opt_b97-3c_parallel
  N   -6.04813735119785     -1.10457728610651     -0.43171553096436
  C   -4.92232148565639     -0.90719883343488     -0.22528273120791
  C   -3.56203022271533     -0.65968032124157      0.02763845262666
  C   -2.64240702156963     -1.56474967513585      0.57559378589895
  C   -1.37504218208750     -0.96981010788191      0.58849292265934
  C   -0.27684153510353     -1.74883861516165      0.98241938172084
  N   0.98742472337233     -1.71278422868472      0.67203426185117
  C   1.78299523675057     -0.81487244874870      0.13520377153435
  C   3.06477242732563     -1.14616709332414     -0.33227217396099
  C   3.61768377830097     -2.42965053593699     -0.40211318060747
  N   4.09720305237325     -3.48562104739728     -0.47095467906110
  C   3.72265602171535      0.07911364059377     -0.60288818834163
  N   2.97068464536550      1.14721821197847     -0.36680129151020
  C   1.74197173052384      0.69061190426797      0.01162404966240
  C   0.74466512805365      1.63867880416975      0.13567122475891
  C   1.23254494414715      2.97752370068451      0.04945838729365
  N   1.46792809972359      4.11422827704329      0.03247802605826
  C   -0.70087920262946      1.55012604961350      0.21527284328213
  N   -1.32817592917736      2.73456997322041      0.31206272837922
  H   -0.82667047800980      3.60627976187979      0.26568141331386
  H   -2.31130076770208      2.76948225190711      0.50229652262646
  C   -1.53879767161695      0.41144039759695      0.10571481828417
  C   -2.89272414453126      0.55019618288153     -0.22944564374722
  H   -3.36485663785435      1.41621981716804     -0.66307602609620
  H   4.73997676399547      0.18452880627613     -0.95058132801964
  H   -0.54986060839013     -2.63695357509708      1.54836088529932
  H   -2.85567563590661     -2.57893297232979      0.86905195366719
