28
Coordinates from ORCA-job ./opt_b97-3c_parallel
  N   -0.27659440424518     -3.20587999427546      0.64365613558187
  C   0.02462292468582     -1.91946413838737      0.28986966620037
  C   1.39659267448037     -1.68175605029512      0.13104547867476
  C   2.18433158373948     -0.56926962528986     -0.08764453600929
  C   1.95582873931227      0.90670581010504      0.10819222950495
  N   3.14224515898837      1.57020751861058     -0.02776581478691
  C   4.06030190110830      0.63769289696539     -0.32426791122721
  C   3.55718877145641     -0.66100228809011     -0.35173687302435
  H   4.10516515538453     -1.57134300436558     -0.53463450628013
  H   5.08256620126665      0.93413396399271     -0.51943007353938
  C   0.87357857144165      1.65344503368182      0.48840966007055
  C   -0.52627335551128      1.46219890103504      0.55150580904054
  N   -1.19360260690214      2.53609214079535      1.04544219910657
  H   -2.20500281596214      2.55725974428558      0.98432354203546
  H   -0.71181234833819      3.40850730892959      1.16281520763483
  C   -1.31702718036362      0.37473582611805      0.10517426480632
  C   -2.68785331585341      0.51115323518530     -0.23227190096749
  N   -3.27922081801690     -0.66131070709598     -0.48652819683286
  C   -2.34236633215734     -1.60661029771828     -0.27998041601719
  C   -1.08938482841755     -1.07210896573792      0.05414559147778
  H   -2.57646430449113     -2.63890802185776     -0.49233316860531
  N   -3.43353568130838      1.70565147211715     -0.31654440920523
  H   -4.39312438978949      1.46079720375835     -0.52204231980557
  H   -3.09976567398028      2.30945129982489     -1.05840544370896
  H   1.18203771601886      2.66941870262041      0.71353911398743
  H   1.98574773709884     -2.59361339358814      0.18380220724185
  H   0.40094510917452     -3.93603832352592      0.52745689333553
  H   -1.22850991491992     -3.48253715519751      0.78178243911073
