25
Coordinates from ORCA-job ./opt_b97-3c_parallel
  N   -5.69782102933923      0.00032311255568     -0.00677410559358
  C   -4.53625351822269      0.00025092329851     -0.00594630855091
  C   -3.12907553085908      0.00017823903416     -0.00458401356293
  C   -2.31670906069103     -1.14530791378563     -0.00370224646954
  C   -0.97384642538554     -0.75020589592648     -0.00238643074374
  C   0.03309273913066     -1.70433918791177     -0.00128501247878
  C   1.42302418631907     -1.70534401823974      0.00012216769772
  C   2.42874358524320     -0.75425230719527      0.00102581636192
  C   3.77681303089679     -1.13930089564091      0.00240842257797
  C   4.58346654395827     -0.00019418348007      0.00306249732977
  C   3.77692188889500      1.13899092104057      0.00212864959719
  C   2.42881656220680      0.75407292324803      0.00084621744894
  C   1.42318874812676      1.70526255023633     -0.00023125580007
  C   0.03325822834238      1.70439343682914     -0.00158357197974
  C   -0.97377423020308      0.75035716100788     -0.00249732811997
  C   -2.31659808387675      1.14558767883207     -0.00386635174243
  H   -2.66925057266889      2.16336608909786     -0.00429635750473
  H   -0.37224728426629      2.71101619984020     -0.00206486516420
  H   1.82692904820297      2.71276092130336      0.00006320546731
  H   4.11955383353904      2.16161215464210      0.00234900125116
  H   5.66332428498883     -0.00024577913459      0.00412716024822
  H   4.11934569438018     -2.16195536916076      0.00286623371975
  H   1.82666575120477     -2.71288194101432      0.00064098998839
  H   -0.37251039142853     -2.71092263095968     -0.00160334327664
  H   -2.66945775779361     -2.16305286291666     -0.00397460300108
