29
Coordinates from ORCA-job ./opt_b97-3c_parallel
  N   -4.97650355158804     -2.15872459348775      0.94465785943622
  C   -4.34533317474324     -1.27194022774421      0.52993972762116
  C   -3.56919978701951     -0.21638290641487      0.04647237728219
  C   -4.03137129642760      0.83246597631355     -0.80981451076341
  C   -2.99436860948677      1.65039569491535     -1.17032101720355
  C   -1.81741245074366      1.20469269107746     -0.49838296823107
  N   -0.76269583114416      1.94516384671901     -0.41582249557837
  C   0.43779631672209      1.89139249197833      0.15803975138546
  N   0.85563504797473      3.09252021347984      0.62638945879742
  H   0.24040046181985      3.88091087014345      0.53144854004706
  H   1.60900164759284      3.14550172266824      1.28519205379519
  C   1.36104984812586      0.82629621578999      0.15318221774936
  C   2.73438275967750      1.02025578252868      0.07787647485638
  C   3.37968168072340     -0.23551614667594      0.06698290768774
  C   4.75117754904320     -0.48152527266018     -0.06478553227262
  N   5.87981143718324     -0.74337571605751     -0.17434784944813
  C   2.40173289760302     -1.24428650066590      0.18245519961283
  N   2.65959912606170     -2.58266882377470      0.27810981716105
  H   3.61301726011170     -2.85490532784419      0.10210105139236
  H   1.99606852974400     -3.20654962468493     -0.14702201667450
  C   1.11687630191570     -0.62369272064616      0.25410035849330
  C   -0.00259511052056     -1.35295382656445      0.61633675260695
  C   -1.37154581432855     -1.10542915376523      0.68345958286354
  C   -2.17736273766926     -0.09112379794401      0.20213439713830
  H   -1.93838242888466     -1.94650626398326      1.06726012234448
  H   0.23464397455319     -2.37003224795369      0.91199549922596
  H   3.23766733100542      1.96427561758676     -0.04794005326934
  H   -3.04825029333733      2.56124368416513     -1.74126365464392
  H   -5.06209019576543      0.94696818360123     -1.10835917471178
