30
Coordinates from ORCA-job ./opt_b97-3c_parallel
  N   -4.41480988659972     -1.93118484017425     -1.02315519612924
  C   -3.62998624443611     -1.13296347512393     -0.69944569300196
  C   -2.75630114708520     -0.11907858897787     -0.31723948552436
  C   -3.13555532676085      1.23133639986061     -0.02972236317409
  N   -2.13519167789074      1.97753815597055      0.45090973537530
  C   -1.02689502229725      1.18628842583906      0.45748261719371
  C   -1.41385363580431     -0.22917707349037      0.07375099275505
  N   -0.81430680505234     -1.37502208589041      0.24628477999194
  C   0.43093257796668     -1.75029560802936      0.46280014519492
  N   0.52948967262306     -2.96832720781451      1.04529786873993
  H   -0.30910648023474     -3.50153265904993      1.19140003111595
  H   1.40708066532428     -3.31431962977755      1.38093154495289
  C   1.65017696170054     -1.14596392184347      0.04470351246854
  C   2.74339311147775     -1.90146910097226     -0.38076375558032
  N   3.78919799289959     -1.13493682830695     -0.76343563828064
  C   3.41622764117286      0.13010127678639     -0.54585783491096
  N   4.32251227928310      1.17518870505334     -0.78094851481052
  H   3.97598301301414      1.84634970912349     -1.45505927604028
  H   5.18568081170091      0.78008250691592     -1.12933005111461
  C   2.08805359555423      0.23742724997147     -0.04365253837233
  C   1.53398027391221      1.42354852331788      0.49169535744584
  N   2.39599735611435      2.43491628344963      0.75156098680108
  H   2.05863468908973      3.33350738058021      1.03932343458930
  H   3.38851510569457      2.30536085053651      0.60956140794297
  C   0.17996286510000      1.76408103413332      0.74532142319202
  H   0.04525227752118      2.79068337323717      1.06909261090080
  H   2.77409289477325     -2.97249227891553     -0.51379408369536
  N   -4.35756573036668      1.73297161578156     -0.20863690670552
  H   -4.54929582063862      2.67564765504907      0.07821684562768
  H   -5.10597483865599      1.16134721935945     -0.55562166494729
