30
Coordinates from ORCA-job ./opt_b97-3c_parallel
  N   -3.89092467855297     -1.95639030294511      1.28779702316890
  C   -2.92877772774976     -1.48886345776648      0.82757533252737
  C   -1.73516797436706     -0.96946471875591      0.27832422742965
  C   -1.86048825030068      0.32101053472079     -0.31284199083762
  C   -3.06494243862214      0.86566897552897     -0.69655823966690
  C   -2.79970368625849      2.17901180830988     -1.17159919837809
  N   -1.53431148596367      2.53214225537734     -1.05695256436785
  C   -0.88758411554978      1.44580894009027     -0.50076523566591
  C   0.37030919401977      1.68282754963190     -0.00456717862755
  C   0.75843408707653      3.05489622198980     -0.01066137012212
  N   1.21050405060055      4.11894359001010      0.10323977093583
  C   1.41462885709103      0.79205619806236      0.48020808821814
  N   2.43632783577100      1.39819745640384      1.14731791084189
  H   2.37511522160606      2.37730147247325      1.37224267397691
  H   3.00590696299665      0.83605297551998      1.75448014729332
  C   1.58850796244889     -0.53546582831376      0.10848075291024
  C   0.67782314103253     -1.61407221196373     -0.24090052853615
  C   1.50484983183173     -2.62416278155662     -0.72278007843362
  N   2.81739180117126     -2.28656397289840     -0.76050171716063
  C   2.90415050400713     -1.07545484010291     -0.22106975782698
  N   4.11638101714495     -0.45139336338222     -0.12232465441340
  H   4.10432569413587      0.55677001506297     -0.09459405410476
  H   4.80295482077675     -0.83726699608943     -0.75224349105241
  H   1.19287360534813     -3.59968042639511     -1.06480065455575
  C   -0.66351477039696     -1.87573472454941      0.18615961072476
  N   -0.92553206600805     -3.17250736330129      0.47650453485798
  H   -0.16721457426074     -3.78446020783980      0.71336149179040
  H   -1.85039346165232     -3.45559064466219      0.75410259815404
  H   -3.51905974941404      2.85296758384254     -1.61707751424217
  H   -4.01952657066268      0.36702858229952     -0.68132901283777
