27
Coordinates from ORCA-job ./opt_b97-3c_parallel
  N   4.84507371308170      0.41852553121870      0.73862133352747
  C   3.57018001571388      0.27538839023998      0.36364636371852
  N   3.06980816359317     -0.94780720768734      0.14746907372971
  C   1.76596256571153     -0.77026542287938     -0.18046633524353
  N   1.03803821174031     -1.81433463826873     -0.43185099035458
  C   -0.27439788445582     -2.02353761426685     -0.50232128450243
  C   -1.38795730750698     -1.30434587774400     -0.11568861059577
  C   -2.59711828027709     -2.01671011661699      0.17358493687571
  C   -3.52577009983987     -1.14672889815336      0.67190250008003
  C   -2.97273045027569      0.17112754183069      0.63007681275424
  N   -3.71181850895980      1.29100136567373      0.93312620179948
  H   -4.47323477762854      1.13947770153308      1.57282955626320
  H   -3.18522413806508      2.12600825883324      1.13119484564093
  C   -1.65294098676450      0.10512179179298      0.15120075912279
  C   -0.92088939038981      1.22795547926130     -0.35710629701353
  N   0.35926871185855      1.44800154391061     -0.47661385642219
  C   1.44974576604727      0.74900357873564     -0.17822882029931
  C   2.63843685505416      1.33770158633374      0.16440366847765
  H   2.81938834888724      2.39614099752262      0.25731322521739
  N   -1.68883731579367      2.31918543278007     -0.72619160339302
  H   -1.15382746757433      3.04046265143822     -1.18193651899355
  H   -2.58848689976009      2.12881902471693     -1.13659611682273
  H   -4.52302219852861     -1.38559048784690      1.01072256869043
  H   -2.70019148050703     -3.08703608242926      0.08692056200045
  H   -0.50368555616427     -3.04262127554768     -0.80827581767880
  H   5.26541238385282      1.32159329935550      0.84641059462876
  H   5.42246211785121     -0.40096331593622      0.80732543499295
