25
Coordinates from ORCA-job ./opt_b97-3c_parallel
  N   1.91251739103787      3.51248743926568      0.62498567865484
  C   1.42231659593825      2.47448009255099      0.44236956306991
  C   0.83709175319456      1.19915223887354      0.21008962253524
  C   -0.52467134097171      1.23194678244722      0.04278203086304
  C   -1.52382442379458      0.24835755962098     -0.10953297969051
  C   -1.55183971944562     -1.14947654616782      0.26112222400757
  C   -2.96129339347300     -1.48963893513828      0.32307000380693
  N   -3.73554475555819     -0.49631095317598     -0.01544469783638
  C   -2.87805626338379      0.57657917482939     -0.26458814672254
  N   -3.43939888013185      1.76695002425421     -0.54506960317560
  H   -2.90690385887872      2.48741804020814     -0.99583360327831
  H   -4.43335628194945      1.77871794560564     -0.68894887752243
  H   -3.35912055799614     -2.46778558024558      0.55583677588531
  C   -0.60750172575401     -2.11242727935117      0.47091925381842
  N   0.67770079789380     -2.19699843652161      0.07765789713906
  C   1.61500548102035     -1.34998608682444     -0.15209791718422
  C   2.92207614871201     -1.87780446207354     -0.57701744313737
  C   3.81660308430183     -0.87850813935722     -0.51290192207104
  C   3.12608668873406      0.35404774058714     -0.13953498648511
  C   1.79669523950421      0.12907748262330      0.05323054355417
  H   3.60222495902274      1.32048608586171     -0.08422163242555
  H   4.87768582276531     -0.94554000456098     -0.69724171905839
  H   3.08267597230418     -2.92346297880238     -0.77664489538046
  H   -0.97024634528544     -3.04911693371540      0.88425713458963
  H   -0.92371625990661      2.23981459840658      0.08959834594395
