28
Coordinates from ORCA-job ./opt_b97-3c_parallel
  N   -4.47179137575911     -1.77955549267263     -0.16735113935762
  C   -3.77012671317249     -0.84919966160965     -0.15978838933398
  C   -2.88633848913661      0.23122353558337     -0.13165750163603
  C   -3.21343557966915      1.59086132029470     -0.24728070435496
  C   -2.06721766382955      2.35881983553486     -0.12512773332398
  C   -0.94497052687370      1.52111742020920      0.03604772132438
  C   0.30542629372513      2.06260250987356      0.24877532000272
  C   1.62606091946368      1.58895505951643      0.27404242849808
  N   2.56321222246446      2.55882405918824      0.50790235853979
  H   2.26233149205408      3.47799302515751      0.77378914347682
  H   3.47141460391272      2.28378587503752      0.83137777814377
  C   2.14744099668238      0.30926724799929     -0.04236171995899
  C   3.47727119144460      0.14113613188469     -0.46574174230577
  N   3.80053788781100     -1.14966490131490     -0.67263661650013
  C   2.72472720619924     -1.86288639040472     -0.31793210119603
  C   1.63188783472357     -1.05140613725441      0.06074684893747
  C   0.39954334617542     -1.61588057237983      0.45019952281683
  N   0.43470250426254     -2.89623717752852      0.90283324278289
  H   1.30839325400195     -3.36108690841319      1.05676615866933
  H   -0.40230274851811     -3.44544678918226      0.96983079317016
  C   -0.91165148948039     -1.09983149974409      0.32649626092545
  C   -1.47061918054042      0.11512361843534      0.04601739066192
  H   -1.66631176581821     -1.87112875328248      0.45402438206048
  H   2.71689444491105     -2.93474641721366     -0.45355174536987
  H   4.17741139317428      0.92272230107955     -0.71920164529332
  H   0.25283222807152      3.14140535577226      0.36853679588011
  H   -2.02010920664993      3.43500397124170     -0.16577703271246
  H   -4.21261236602964      1.96557466249223     -0.40642925414732
