31
Coordinates from ORCA-job ./opt_b97-3c_parallel
  N   -2.36801099322803     -3.66356206403973      0.31557543629238
  C   -1.75941063196996     -2.67757628792504      0.20661633032492
  C   -1.03441344172185     -1.46576946395440      0.06535650579043
  C   0.33822522790929     -1.64340665643975     -0.04177650751832
  C   1.46535833816972     -0.84314173738388     -0.15320486720877
  C   1.77668381787845      0.57033385098782      0.11214365076816
  C   0.97844301819634      1.67115176271065      0.35777856754058
  N   1.59158179341305      2.82814395438307      0.82516638519764
  H   2.36495064385907      2.68902305819662      1.45669535994531
  H   0.95689790566513      3.53626311048339      1.15214112214513
  C   -0.40874142239015      1.89227449317569      0.07728708566329
  C   -1.53156151947420      1.15663903157523     -0.13288423471954
  N   -2.69615390643603      1.88258321412701     -0.33927495073098
  C   -3.67469524236089      0.99729408274480     -0.36226835501921
  C   -3.21962776693349     -0.35778042612954     -0.18124133820710
  C   -1.85884479743922     -0.30415591439892     -0.06054793038863
  H   -3.83020780071817     -1.24566829167093     -0.17926986983382
  N   -4.95427553088774      1.35047001290509     -0.57259860182146
  H   -5.69521385910068      0.69706321954662     -0.40324186516710
  H   -5.18280338570382      2.32883667948755     -0.57505578159729
  H   -0.65295768655061      2.94924919285824      0.04184099992165
  C   3.21428420842334      0.61893523317954      0.05239508222811
  N   3.76400080032646     -0.56482394685738     -0.21757368983781
  C   2.73950602205601     -1.44265721401420     -0.32523056103612
  N   3.02413973762110     -2.75731374373994     -0.53456688912841
  H   3.98236399683021     -2.93664592440677     -0.78131320553908
  H   2.35873009563674     -3.30849418973469     -1.04583489172445
  N   4.02829916346936      1.71379157603133      0.20010230727190
  H   4.96464875073830      1.52926477374871     -0.12681541095517
  H   3.65282443963536      2.58466128633577     -0.14443461848919
  H   0.59069933208985     -2.69829622757640     -0.03088220486578
