32
Coordinates from ORCA-job ./opt_b97-3c_parallel
  N   4.39246863159899      2.13056046021477     -1.14959898905969
  C   3.68748967663957      1.26926330258467     -0.80212975530946
  C   2.91348479506993      0.19030822929360     -0.38883714030594
  C   3.42248335527755     -1.10012446013113     -0.02639291286439
  N   2.49736850535410     -1.92386085543213      0.47243106179393
  C   1.31202713869164     -1.24783218251857      0.42487208442887
  C   1.56317237247091      0.18445335137354      0.00032952793144
  N   0.84284020165730      1.25985652098633      0.11744452862957
  C   -0.41396544732730      1.53603185729264      0.42712815339527
  N   -0.53987882802233      2.80620629776893      0.97034533582957
  H   -1.23515516633427      2.91805470487828      1.69037750470003
  H   0.34911298359582      3.23537937512007      1.17216437662724
  C   -1.60182599636940      0.85240762200244      0.13325278579716
  C   -2.82413781425744      1.51165157766821     -0.15752170904625
  N   -3.78723195867263      0.65731562990239     -0.56784364168784
  C   -3.25475465863496     -0.56654873437897     -0.51629644131605
  N   -4.05392879486070     -1.64918502650335     -0.83132567068741
  H   -3.59868640610599     -2.36419574552315     -1.37936865971009
  H   -4.91809295146446     -1.34460734715073     -1.25437426405218
  C   -1.89549011191385     -0.57421104471822     -0.07868035162536
  C   -1.21838864700942     -1.72782337069211      0.33237608631129
  N   -1.94080968555013     -2.89965507767374      0.38658871678432
  H   -1.49038698822910     -3.68649887266875      0.81706264165248
  H   -2.93304631184447     -2.83491802149678      0.55356518814680
  C   0.15548584749008     -1.93899910188253      0.64499885107412
  H   0.37644105547815     -2.95736261554876      0.94636606943119
  N   -3.11446667877289      2.84569070283789     -0.11216440246268
  H   -2.32440482614043      3.46894437627941     -0.17777283098192
  H   -3.90160153131972      3.09852500012083     -0.68771726214512
  N   4.69562527754889     -1.47619814042409     -0.16114619960093
  H   4.98235059978124     -2.37306361879364      0.18652057993436
  H   5.38669740337525     -0.84074346978917     -0.51559300831099
