29
Coordinates from ORCA-job ./opt_b97-3c_parallel
  N   -4.79694848175028     -1.25165831592514      1.03837111425020
  C   -3.98205339793964     -0.49612797738724      0.69296486340012
  C   -3.00893920641295      0.41495136030108      0.27692690437624
  C   -3.18567060570957      1.78635691500782     -0.02719971472093
  N   -2.10455206572195      2.38420847243936     -0.51242069637909
  C   -1.10431100793340      1.43886177246122     -0.49652062962116
  C   -1.68104397478589      0.10932630199793     -0.09321163218887
  N   -1.22881783773615     -1.10189528072797     -0.24443924915197
  C   -0.05234769809349     -1.64319803600103     -0.49085739716796
  N   -0.13627315582917     -2.86304941460066     -1.08368511799663
  H   0.65984854237536     -3.25624327007388     -1.54707871938323
  H   -1.05193529671422     -3.21324756366977     -1.30427101055258
  C   1.23710666288855     -1.23409922728631     -0.04918865663324
  C   2.17903988835499     -2.17928942208415      0.36419717795196
  C   3.33510183073174     -1.52278964492496      0.79896688874077
  C   3.16133954159536     -0.15673159138366      0.61682728705907
  N   4.13228575754650      0.83438489759393      0.89944596397674
  H   5.00767764813974      0.41185165064669      1.17153979069549
  H   3.83905560612211      1.44974466252322      1.64846266713001
  C   1.86013344447472      0.08730315445074      0.08150968993756
  C   1.47147263318326      1.32915252636273     -0.46780641569480
  N   2.45264830426474      2.22153725826595     -0.74588689187118
  H   3.40582547105248      2.00190990911663     -0.47743317756514
  H   2.22035182992336      3.17928635949561     -0.93333434036557
  C   0.16952608359985      1.85292827764033     -0.73174960489947
  H   0.18014687634358      2.88988782810515     -1.05130718404019
  H   4.20560183431333     -1.99065879093867      1.23455672424603
  H   1.99445587459157     -3.23857501862632      0.43897413292765
  H   -4.10833032947587      2.33580647032229      0.09938917774013
