36
Coordinates from ORCA-job ./opt_b97-3c_parallel
  N   0.14872209610433      4.08878990281491     -2.00949350303068
  C   0.20997591663256      3.09210804436087     -1.40838489990093
  C   0.35851138957401      1.90048681566528     -0.67186917324100
  C   1.63675354829204      1.44363201861712     -0.44738328290738
  N   2.70974443946671      2.19214752082211     -0.83209019430197
  H   2.55129966396169      3.00112638034036     -1.41164154351298
  H   3.59048906353721      1.72549584517926     -0.95556630129838
  C   1.95374825858037      0.21146236351495      0.25238401085506
  C   1.61080809832693     -1.10913485676001     -0.14996000332463
  C   0.48557683615998     -1.62413124418219     -0.79341510842249
  N   0.65820097243828     -2.86303396141882     -1.41396905046842
  H   1.44083829274913     -2.89893744389180     -2.04657779975252
  H   -0.17088828268194     -3.26485658666558     -1.82524127666434
  C   -0.85297941748951     -1.14661778616155     -0.62382116504461
  C   -1.84093343674232     -2.05102190946414     -1.09554325480545
  N   -2.56920003516007     -2.81329602284203     -1.58632109696819
  C   -1.34241599114728     -0.00575872822585      0.02156548185654
  C   -0.82723089398211      1.37629580722461     -0.01473482065769
  C   -1.79973901101858      2.19737176432277      0.48841537168459
  C   -2.90921147168762      1.40117598175812      0.92527079391289
  N   -4.00338921940059      1.86458141071669      1.53914279148032
  H   -4.72478643617690      1.23137380380807      1.83877862229984
  H   -4.09863054706188      2.83351376830808      1.77647828218593
  C   -2.63857081408019      0.05626984083050      0.62829659364348
  C   -3.46923205328634     -0.97921681542235      1.05774606410905
  N   -4.22294055081908     -1.76437721116011      1.47409105459934
  H   -1.75559304349038      3.27439156906127      0.52027668512424
  C   2.60379818026462     -1.96132298415154      0.52449274876541
  N   3.42235491664641     -1.25248194381991      1.29552030733381
  C   3.07411964596786      0.04839866383915      1.10312573260374
  N   3.83906626314422      1.01830658875394      1.65208914947616
  H   4.48442518698635      0.72646952773725      2.36511079869173
  H   3.46428565135285      1.94630958663149      1.73056709039106
  N   2.65871145120980     -3.30470203076450      0.49338169446038
  H   1.88898884326517     -3.78406567710555      0.04774021848184
  H   3.11746070346451     -3.75299944027076      1.26930033554689
