24
Coordinates from ORCA-job ./opt_b97-3c_parallel
  N   -3.53638857239426     -1.74605205063012      0.25667279299950
  C   -2.85835369322611     -0.55320524594557      0.15596752958602
  C   -3.47666220118620      0.71602878484647      0.03559608241239
  C   -2.50514698441075      1.67450605416706     -0.16010239314335
  C   -1.22781087223576      1.06212665890995     -0.11633149289317
  C   -0.09017988184705      1.82858356739729     -0.14499794031186
  N   1.17351264513249      1.62067253083039      0.22443591132582
  C   1.97563398519763      0.60922812984362      0.25179537273651
  N   3.26547373982683      0.81858482761575      0.68051568722456
  C   3.92632085675172     -0.29702293189326      0.39110395643025
  C   3.13910039455777     -1.31032177164808     -0.20000790188113
  C   1.84242697919353     -0.82927402155504     -0.24763709605760
  C   0.72896698242407     -1.63790476098931     -0.46780646361179
  C   -0.63115919022482     -1.47444493117809     -0.25950145616231
  C   -1.46197952967238     -0.39926072208552      0.02794245121361
  H   -1.17416480911333     -2.40736671412390     -0.38180089527069
  H   0.99860599337371     -2.65215135064483     -0.74348892092652
  H   3.46192070414244     -2.30472876172856     -0.46575781608655
  H   4.98328960750977     -0.36980052799874      0.61429390832959
  H   -0.26917489567185      2.87307890489626     -0.39564048485166
  H   -2.66834372817550      2.73684581879381     -0.24760230363716
  H   -4.54192924975832      0.89084560984282      0.07812854064318
  H   -4.50813319931835     -1.66560925280812      0.50245586247885
  H   -3.07898530507557     -2.46893376211414      0.78581431835339
