27
Coordinates from ORCA-job ./opt_b97-3c_parallel
  N   -5.01740623599957     -0.41714964503227     -0.09533606779809
  C   -3.69637489088747     -0.21895145414169     -0.03005811410478
  N   -3.18315379812318      1.04028354854392     -0.02760136784693
  C   -1.85848699875420      0.85158769755911      0.05342794702317
  C   -1.01866934610523      1.95402222733762      0.14124109323475
  C   0.35297067940779      2.09788481781675      0.20161798959647
  C   1.46176753006760      1.26486949173692      0.13736257860935
  C   2.74320230811616      1.85808268219439      0.12338348209254
  N   3.73011390402947      0.97729002977878     -0.04433923176809
  C   3.13835750739495     -0.23638600619032     -0.11885193009200
  N   3.94711481870237     -1.36373096507944     -0.28000907887872
  H   3.69014985618802     -1.93159337068223     -1.07611232065253
  H   4.90970083328285     -1.06898299342205     -0.36892905599433
  C   1.73133934632185     -0.17521118336195      0.01406531846254
  C   0.90434368857781     -1.30633141457602      0.19564593141425
  N   1.54095756277147     -2.50518197172715      0.34636857392773
  H   0.99760095817225     -3.29332645538115      0.64678599040133
  H   2.52083110354355     -2.50752032780880      0.59294193358812
  C   -0.50346213110390     -1.44147042105238      0.20343099040464
  C   -1.61150380201219     -0.63318519414574      0.09886117294991
  N   -2.82662608763901     -1.23760579961436      0.05444495091451
  H   -0.82152332211208     -2.47600919581763      0.27745602755195
  H   2.94398386990574      2.91736087133037      0.19677671817344
  H   0.65033641956265      3.13878646375311      0.28862849463205
  H   -1.57540452714006      2.88252915198566      0.16068280632646
  H   -5.36975037037413     -1.34941174041097     -0.20544351530483
  H   -5.62009436781157      0.36433097050546     -0.27247329876662
