28
Coordinates from ORCA-job ./opt_b97-3c_parallel
  N   -0.17360043556431     -3.14235737304761      0.87418604884782
  C   0.03579789261327     -1.86050054208362      0.42928786223203
  C   1.42098525279995     -1.54021637943325      0.28143088808058
  C   2.11809773713948     -0.40910897118721      0.02874708463894
  N   3.45757619058773     -0.55659713319341     -0.34232348761644
  C   3.88849912566256      0.66593321645324     -0.57495952009083
  C   2.92197836644673      1.68222168217649     -0.31880725249560
  C   1.77036252632426      1.04457423162257      0.07958287539187
  N   0.70105739517080      1.69164516489351      0.57458141777868
  C   -0.56322589389047      1.41026577391708      0.58142574252297
  N   -1.34572784176251      2.39227560871471      1.16910748973582
  H   -0.80687245369716      3.08269148387944      1.66670286855905
  H   -2.18572781150157      2.08780208965975      1.63243995392387
  C   -1.31499736870598      0.32855718406468     -0.01773161975190
  C   -2.61127884487769      0.49063993280364     -0.52593262089323
  C   -3.16206729067253     -0.79443250628868     -0.81825084288429
  C   -2.26210462418862     -1.74903101213335     -0.43419685798946
  C   -1.07054029367123     -1.10629074143418      0.04433260359765
  H   -2.36257197784781     -2.80456574823260     -0.63187007070789
  H   -4.11969913736105     -0.96535349895295     -1.28709451938626
  N   -3.32925480425030      1.65635716318048     -0.68435400655473
  H   -4.03200889222370      1.62742971210455     -1.40367983022388
  H   -2.78697473607579      2.50477446524544     -0.69178703711517
  H   3.06335088563237      2.74925417930944     -0.37025476027522
  H   4.90227798241164      0.83001588371281     -0.91918074964923
  H   2.06846014265265     -2.41259071678947      0.27493672978563
  H   -1.11685293560034     -3.48279159065136      0.91587224268947
  H   0.53000964374998     -3.83868836451049      0.69730946084996
