32
Coordinates from ORCA-job ./opt_b97-3c_parallel
  N   -5.05252013717840     -0.20146136409974     -0.08677018448902
  C   -4.02424218844118      0.33232786296063      0.01917485493262
  C   -2.82348090344934      1.02235448021171      0.21447271718263
  C   -2.71999642908523      2.25555710669712      0.96542192180057
  N   -1.49813922040579      2.68087452829577      1.13557166413560
  C   -0.69505757432162      1.76274449200605      0.46146100793295
  N   0.49434078556777      2.10164750351006      0.13473193310507
  C   1.52839055008348      1.47372557056798     -0.43819314798538
  N   2.32627831987636      2.32294734777804     -1.19519519181413
  H   1.93004133589623      3.24457857008608     -1.30131139867222
  H   2.66016148621567      1.93024583050041     -2.06090304859213
  C   1.99648598362066      0.21279639699220     -0.11176391436190
  C   3.39304004843163     -0.05033477429532      0.15672575308702
  C   3.48661580320960     -1.27007148120110      0.81472507476669
  C   2.20316609186081     -1.83323061060239      0.91036494011169
  N   1.97028145582211     -3.08866427068104      1.41988172257851
  H   2.71303326014582     -3.46218730963751      1.98644320181883
  H   1.06239568731538     -3.23570600422982      1.83021444537652
  C   1.24171883210467     -0.96403556132077      0.32635695450027
  C   0.01423039611614     -1.39864479696901     -0.21934538892833
  N   -0.17962152025564     -2.73690441105634     -0.34592192747277
  H   -1.02736502923658     -3.06713711672765     -0.77531804306423
  H   0.61618981542478     -3.34889052750593     -0.39375581133017
  C   -1.09430415742959     -0.58784973975305     -0.64858275756695
  C   -1.99674984951351     -1.21595191399303     -1.53244037481982
  N   -2.67203389734358     -1.76803383605567     -2.30499182473749
  C   -1.51959206917531      0.60950334956778     -0.03575180228725
  H   4.39476695157741     -1.71295642488441      1.19478821730227
  N   4.43620693947737      0.78690462363843     -0.10872271608739
  H   4.18118644334217      1.73665537294336     -0.34311892201681
  H   5.22976877317442      0.70956883160384      0.50560960516849
  H   -3.56666458082498      2.77872977585387      1.38944766962686
