30
Coordinates from ORCA-job ./opt_b97-3c_parallel
  N   4.75037840511957      1.62591334249155     -0.02368911420691
  C   3.96221498465512      0.77217495292458     -0.09176288090301
  C   3.03656155343779     -0.27140627279854     -0.19034656067776
  C   3.30531433001741     -1.57873472225874     -0.80415344636359
  C   2.20540288319348     -2.34623531256411     -0.68913596397275
  C   1.16250313544887     -1.57000226704840     -0.02878149831256
  N   0.01388150101343     -2.10748966294415      0.24617481105531
  C   -1.19235230720602     -1.62158978148891      0.51825840973171
  N   -2.11819511665657     -2.59283639043150      0.93894386678181
  H   -2.65312174745482     -2.31770195516041      1.74930382401441
  H   -1.66406777918139     -3.48294754667521      1.08434615152371
  C   -1.68798494186118     -0.37011438579865      0.14212707187141
  C   -2.99637216180966     -0.17407009593406     -0.50767280508644
  N   -3.13034706481300      1.04894822378411     -1.00013217084614
  C   -1.98454272423885      1.70783872749723     -0.64497570155484
  N   -1.89056639578885      3.02415545475190     -0.90071057404633
  H   -2.57900373948578      3.43395308655320     -1.50583491356699
  H   -1.01111914966626      3.49368014194957     -0.78263244455523
  C   -1.04228747894421      0.88725011899323      0.01677848007147
  C   0.09230101722591      1.36311743828676      0.80427716952019
  N   1.24774805554711      0.82451391356297      0.97886138709580
  C   1.73891935242744     -0.23199635582604      0.27459387139162
  N   -0.10019346576778      2.58890657394494      1.40872285561306
  H   0.64556464536270      2.85227537579806      2.03388304808498
  H   -1.02814323492904      2.80132934852279      1.73594426989887
  N   -3.94084059613485     -1.11580084167535     -0.66192573983152
  H   -3.69417324550044     -2.06228769051869     -0.40645553691540
  H   -4.62526663652292     -0.96585595850321     -1.38388813114549
  H   2.06508757898643     -3.36264973307094     -1.01626310095161
  H   4.24790621202645     -1.84314692046412     -1.25521619141776
