30
Coordinates from ORCA-job ./opt_b97-3c_parallel
  N   -6.26451788438274     -0.61476961611958      0.44410933151720
  C   -5.12210312226243     -0.53076677232219      0.25108821363417
  C   -3.74148355820469     -0.41172785720592      0.01459824114077
  C   -2.86629399089111     -1.43460137146404     -0.30649228651485
  C   -1.54563407122627     -0.90743390010446     -0.37079554180018
  C   -0.50764559418534     -1.80270960656538     -0.53839338526181
  C   0.87198893452352     -1.79031880362700     -0.30817250558981
  C   1.48949550529094     -3.06196331796485     -0.51211311242741
  N   1.91689161974715     -4.11841744206533     -0.72872734200667
  C   1.71819219533547     -0.80882014493738      0.22931224250787
  N   2.91930727556775     -1.20118312801721      0.66692029809642
  C   3.57185770349632     -0.08275820747979      1.05750859693245
  C   2.81490324455011      1.09440137655465      0.83694334455350
  C   1.60126962040524      0.69449859579898      0.31964144003450
  C   0.67086771457460      1.62998946415607     -0.21640922772449
  C   1.26097010386560      2.88981303250837     -0.48969452068522
  N   1.70807807340770      3.93590365859156     -0.73363387131118
  C   -0.73025550513291      1.60204562148923     -0.40237089900177
  N   -1.31242045564179      2.76513073535211     -0.78363097186963
  H   -2.22605332870810      2.73832230009640     -1.19489452058426
  H   -0.75973854144233      3.58831690025021     -0.95213285702715
  C   -1.65788271076004      0.53802119559182     -0.15836398834503
  C   -3.00038347747077      0.80163551800203      0.07812511261126
  H   -3.43349930634742      1.75965127612958      0.31291975187392
  H   3.12818393372960      2.10619782999463      1.02925202202787
  N   4.78502843899252     -0.17676600094309      1.59511513160148
  H   5.30074418554392      0.63219233857401      1.88668299561543
  H   5.20600289720212     -1.08445575825202      1.69365344610716
  H   -0.86018763468535     -2.79109431596620     -0.80782868079250
  H   -3.11818796818595     -2.47668490755374     -0.41206114311434
