26
Coordinates from ORCA-job ./opt_b97-3c_parallel
  N   -2.20492418234538     -3.52084561933005     -0.13777872096651
  C   -1.63600631845722     -2.50932914703470     -0.12826252100558
  C   -0.82809961481846     -1.33191810536787     -0.12315623657057
  C   -1.53517066768623     -0.13480289627146     -0.12924231502830
  N   -2.88217352358379     -0.20876367371542     -0.06145068710852
  C   -3.33031104577643      1.05035525566520      0.04992217648942
  C   -2.28848154154982      2.02316542248984      0.03077235627297
  C   -1.10358838602337      1.34435972692385     -0.11336952811294
  N   0.03522005252758      2.03724720322836     -0.25498996936754
  C   1.29607968170350      1.70376920352222     -0.25395222501238
  C   2.03941181122328      0.54022360261668     -0.03640473753936
  C   1.70013523347264     -0.88199586689405      0.00999575340630
  C   2.96740278963746     -1.54149082145260      0.09638827632924
  N   3.98807832910437     -0.70943797552925      0.12419336642094
  C   3.44820112539607      0.55328070603877      0.04116596574738
  N   4.30085614004740      1.60442581804076      0.01363800357015
  H   5.25209271796876      1.39127174292082      0.25948004249658
  H   3.97471927527265      2.51169534107767      0.29060783329806
  H   3.11104243503061     -2.61200231607702      0.14637786638910
  C   0.55917372793203     -1.62504717086737     -0.06066265143822
  H   0.74766110564755     -2.69219402667409     -0.03875394022759
  H   1.92617882845164      2.57054610674141     -0.46370545070592
  H   -2.38477508852191      3.09532106082894      0.05494206618856
  N   -4.63682956851434      1.28933161625650      0.14806954164658
  H   -5.27529326910825      0.51247926649960      0.13473192411223
  H   -4.99993495163056      2.21693989916361      0.25849501851597
