25
Coordinates from ORCA-job ./opt_b97-3c_parallel
  N   0.01627389633270      4.18559116266985      0.16660262584901
  C   0.14228175450562      3.03286865295863      0.13380627321654
  C   0.41063142510550      1.63072262522246      0.09892977049058
  C   -0.72758498533562      0.81627477489001      0.13850412478289
  N   -1.92118996960387      1.42641756112884      0.11416827386977
  C   -2.85797385355514      0.47322697041403     -0.04176217378827
  C   -2.29990736439004     -0.84122962846361     -0.10523809847752
  C   -3.04534234334312     -2.01751561117029     -0.19771156475250
  N   -3.74910035671178     -2.93962708810468     -0.28170411899847
  C   -0.92035734164671     -0.70246183318878      0.06431030048658
  N   -0.16991902262386     -1.78192563662747      0.19244386210893
  C   1.11718451987144     -2.00405997291186      0.27262906313850
  C   2.26451556808719     -1.23880463044733      0.06653497691296
  C   3.53109028518290     -1.82986660707881      0.02995188983917
  N   4.53148058412507     -0.93403788871322     -0.16784660372988
  C   3.94562026926351      0.25877720686002     -0.24588829232085
  C   2.53001718973642      0.19164265008729     -0.11458142244191
  C   1.78014746482445      1.33731859093824     -0.05255692289314
  H   2.37866132956833      2.23642634320769     -0.14834985554599
  H   4.52196596286643      1.16365625486505     -0.37903419089995
  H   3.74578794235467     -2.88378009700342      0.12917017770436
  H   1.33895760427690     -3.04419803976585      0.50830675036238
  N   -4.14413317850601      0.77800050379469     -0.11157098791202
  H   -4.42762854590116      1.73951164296396     -0.02824359613227
  H   -4.84344806098415      0.06738590717478     -0.23911018066892
