36
Coordinates from ORCA-job ./opt_b97-3c_parallel
  N   3.72467293433963      3.44464017487060     -1.24901376898934
  C   3.33907092704063      2.37563943595111     -0.98947431962289
  C   2.94690499888968      1.07088276791252     -0.70691898422348
  C   3.76377561199739     -0.05928990679495     -0.83322592696901
  C   3.07404501289397     -1.21517333271004     -0.32922679782452
  C   1.81740752750208     -0.85586535864793      0.07536442305828
  C   1.74462699340210      0.64656768211725     -0.05175351965151
  N   0.94084319481103      1.47803417698659      0.50939221773663
  C   -0.27638513062811      1.43093283625287      1.04425470344833
  N   -0.50077275149046      2.44244857384044      1.96840762452363
  H   0.32955196077976      2.97161882893890      2.18646848363483
  H   -1.03828245718888      2.17662331421765      2.77775670422364
  C   -1.36472862891569      0.69140980855164      0.59007525268592
  C   -2.65651532435068      1.28741270863383      0.40354636732772
  C   -3.43086901509913      0.40840688134000     -0.37321583543833
  C   -4.70996702564806      0.66101404089004     -0.86564765130067
  N   -5.77753191601964      0.86551530109069     -1.28694290160432
  C   -2.66956195438823     -0.76853638374793     -0.61689541524660
  N   -3.20594040236176     -1.85394926052661     -1.25421062575836
  H   -2.55825120150142     -2.47515150094709     -1.70868982849968
  H   -4.03606122115405     -1.67072822348924     -1.79465261236873
  C   -1.39317618268174     -0.63562932151960     -0.02970931127758
  C   -0.56545274195650     -1.74907026637164      0.30098077830747
  N   -1.18696776898479     -2.96256420666962      0.33111663580705
  H   -2.17352926494058     -2.99624095391886      0.51867303829276
  H   -0.65689710937628     -3.77517707790972      0.59746339908569
  C   0.82939472973448     -1.76680815278893      0.55444184644863
  C   1.35482964297653     -2.99095553912621      1.02009931257303
  N   1.77409657058757     -4.01096140931988      1.39758577080136
  N   -3.07479529591876      2.50894043052863      0.81672247114270
  H   -2.35666524534259      3.14137963207030      1.13928951308803
  H   -3.82344000219497      2.93037613106536      0.29094815940587
  H   3.46637226198929     -2.21916404446616     -0.34989644883240
  N   4.99136541059720     -0.08026785708112     -1.35370426522392
  H   5.55666271092237     -0.90786493899997     -1.31714472748728
  H   5.42480633746993      0.77069658158934     -1.66873182148364
