30
Coordinates from ORCA-job ./opt_b97-3c_parallel
  N   5.85555326901951     -0.09691369502521     -0.19020394368336
  C   4.70043570197694     -0.15233635242959     -0.05613029793605
  C   3.31063887753337     -0.14766349647212      0.11034941973447
  C   2.44814068631974     -1.25037307650796      0.06804621351968
  C   1.12098935828698     -0.80958186669341      0.17879089354576
  C   1.16823227600400      0.65745061186138      0.34359089335879
  C   0.22827298564104      1.63484804268686      0.68650783054787
  C   -1.13891857300084      1.74859702600161      0.70668325109495
  C   -2.19021513158892      0.92322280276947      0.28463898912653
  C   -2.23804194389115     -0.50741852612732     -0.15862372277807
  N   -3.52022476884301     -0.83641359532918     -0.50564662801173
  C   -4.25609811621308      0.25986894128339     -0.29941787769311
  C   -3.49807371684150      1.35355071861855      0.20326715130237
  H   -3.86400281269844      2.33664871669011      0.45404789088523
  N   -5.58208328695863      0.25035649850283     -0.53175505886609
  H   -5.96092931657748     -0.53608627794194     -1.02953094310882
  H   -6.09310426078443      1.11187653253399     -0.57185772036034
  C   -1.32770252559309     -1.53046186280290     -0.15897418450018
  C   0.04988889255080     -1.72030115906661      0.11674695917524
  N   0.37794181574471     -3.05109049273140      0.19872736824751
  H   -0.37194774771995     -3.71085427099389      0.29215890824418
  H   1.21795591990736     -3.30171007781865      0.68521978226815
  H   -1.82939170551635     -2.45735198025911     -0.41768981506274
  H   -1.48620431121826      2.71727799956377      1.04976031777264
  H   0.70887372426701      2.55181211796722      1.01414879120558
  C   2.53386560662644      1.02193783593522      0.28757439944112
  N   3.05632282785912      2.28889810529793      0.43862512975238
  H   2.56115212315389      3.02050221644547     -0.04319510528605
  H   4.04697083471759      2.34627870052186      0.26214012939397
  H   2.78289321403670     -2.24935494688009     -0.15264823913027
