29
Coordinates from ORCA-job ./opt_b97-3c_parallel
  N   3.19891237335453      3.43673423802497      0.39425830509349
  C   2.62426175490216      2.43286335656006      0.30473708125323
  C   1.81013159102656      1.26703425440405      0.16198620270948
  C   2.49316533782049      0.05194166308631      0.33978080805776
  N   3.77933673635038      0.09048462417360      0.68098530430856
  C   4.24156240103814     -1.19661220363490      0.63720293291351
  C   3.28979584198132     -2.09707229382339      0.23108315341989
  C   2.08507437974242     -1.36544548933111      0.04545938049924
  C   0.94003697775535     -2.00463453963857     -0.34449103948398
  C   -0.44738742278947     -1.71525231215935     -0.45918172836423
  N   -1.16253256047364     -2.77827740197025     -0.89823713222695
  H   -0.71847672477441     -3.66165192163927     -1.06239261204207
  H   -2.16238604827133     -2.70340384470468     -1.03087795028205
  C   -1.17067012165161     -0.53171029375314     -0.17452386276575
  C   -0.72696501182149      0.88144248125065     -0.20795807888117
  C   -1.89282432809842      1.67188855727232     -0.26436201602539
  C   -3.01163471940073      0.85070352863634     -0.17625751947685
  C   -4.35964091181917      1.23141146714814     -0.11021259826690
  N   -5.49549551988035      1.47349868257729     -0.05107046923611
  C   -2.57807445254828     -0.49882366519234     -0.11193507420755
  N   -3.45511635554638     -1.58675945982127     -0.04619100919042
  H   -4.42229307322757     -1.29336940614295     -0.05252079097871
  H   -3.29761233017695     -2.17589898856175      0.76004943279460
  H   -1.90637456067594      2.74832458285649     -0.28394682194407
  C   0.47740981349361      1.56693393201987     -0.11621388971739
  H   0.32530834763468      2.63469361917977     -0.21357597350408
  H   1.13740572447620     -3.04825892817587     -0.57270485442601
  H   3.39670058805975     -3.16361584208702      0.11861203970726
  H   5.26597297432377     -1.40301343365607      0.91053635676270
