26
Coordinates from ORCA-job ./opt_b97-3c_parallel
  N   -4.99566182813836     -0.43342979356862      0.07337550584824
  C   -3.67298778177008     -0.20914752451391      0.03081749696476
  N   -2.81128820773911     -1.22865142913394     -0.04382633524786
  C   -1.56339874779527     -0.67621945100123     -0.03833840276476
  C   -0.50000079440641     -1.54623917504147     -0.10000640994193
  C   0.89985917480187     -1.43008014729283     -0.08492212959096
  C   1.80393194787100     -0.40911060540999     -0.02593608010169
  C   1.69903524678323      1.06650759932401     -0.03917992877503
  C   3.01654037506620      1.49989703710856     -0.07543150361005
  N   3.92939511174795      0.48894719645034     -0.05959942029343
  C   3.23099952374058     -0.64244395325508     -0.02083403379926
  N   3.86598943585127     -1.85718064171431     -0.04474652329972
  H   4.85524971698494     -1.77766742086140      0.12819771937013
  H   3.43993540467078     -2.60098847004814      0.48101856813264
  H   3.34659872454820      2.52847902225352     -0.09627024113072
  C   0.63027895973165      1.96533193521479     -0.00546927459351
  C   -0.73913734252995      1.87730141654594      0.04070726424716
  C   -1.67538647615126      0.82627839253243      0.03921963702126
  C   -3.03225331698842      1.06135453231642      0.08466736446468
  H   -3.51144636550475      2.02584122291214      0.14399500179617
  H   -1.22541371021045      2.84639994557681      0.07630278364200
  H   0.97977267456214      2.99415741583733     -0.01064457214383
  H   1.36575294916511     -2.40942877113678     -0.14326697960361
  H   -0.84645762613972     -2.57085636992575     -0.15816579787565
  H   -5.65041872888523      0.31918674961917     -0.02118932943140
  H   -5.32369254856595     -1.37008482598789     -0.08258372778363
