26
Coordinates from ORCA-job ./opt_b97-3c_parallel
  N   -6.25979172552216     -0.12506130205265     -0.01906106499698
  C   -5.10083301266060     -0.04994207989232     -0.01561905260225
  C   -3.69779072490151      0.04985778391712     -0.01105848480469
  C   -2.95892506250271      1.25814924193950     -0.01274686181647
  C   -1.59819064832667      0.96826143940386     -0.00698473603493
  C   -0.67858540050479      2.03393075780540     -0.00753077219461
  N   0.61619175616590      2.18120527643316     -0.00425965276156
  C   1.64762766155825      1.33287249149788      0.00188908487311
  C   2.92917216695962      1.83995047390667      0.00323218141978
  C   3.81280772941912      0.73522800572403      0.01061792011824
  N   3.16712908204455     -0.45610143072536      0.01405714187003
  C   1.85705840831908     -0.18942741426936      0.00901689681374
  C   0.98004990163431     -1.28167606154721      0.01054546274448
  C   1.62453705944026     -2.55812906406439      0.01795960763598
  N   2.06191595439942     -3.63243883090134      0.02400115186392
  C   -0.42027471304690     -1.38254885549317      0.00594583499732
  C   -1.47995078698206     -0.50247243058778     -0.00129621360078
  C   -2.79953064759211     -1.01349575551743     -0.00409372092787
  H   -3.05979697558327     -2.05930001876480     -0.00120214205126
  H   -0.74609694017339     -2.41606755467722      0.00878075935569
  N   5.14224945874754      0.75659396092943      0.01431810865629
  H   5.66062791784896      1.61488788478293      0.01195363135988
  H   5.64258879951965     -0.11598877332291      0.01970717462579
  H   3.17374179685529      2.88817870000744     -0.00046548337547
  H   -1.19151939373964      2.99586597002762     -0.01217134654483
  H   -3.38759254497730      2.24712544954313     -0.01776982582244
