31
Coordinates from ORCA-job ./opt_b97-3c_parallel
  N   -2.65770459845288     -3.71043891971279     -0.72232496215279
  C   -2.42469631474010     -2.58238182565635     -0.53817697979177
  C   -2.16172589824021     -1.23296279152298     -0.32040549437033
  C   -3.13091878860261     -0.29177684252986      0.09027999639295
  C   -2.49927047568602      0.96496463426785      0.29348187382570
  C   -3.19786728891887      2.13123838144596      0.60446691282996
  N   -3.86160033803544      3.04872749881477      0.87591571572901
  C   -1.12761053915000      0.84643009755986     -0.01814466118587
  N   -0.38391975603573      1.91434225481830     -0.15282568885921
  C   0.90299938998843      2.10633617783477     -0.37101669940188
  C   2.06415843868783      1.37182826875975     -0.18275723125231
  C   3.28516411448776      2.08964023745338     -0.12941059164517
  C   4.29712824880560      1.25329822451392      0.29035305825491
  C   3.76477262242891     -0.03918848727788      0.46340820230768
  N   4.52854904542928     -1.14429156880055      0.83337488436770
  H   4.09974976432264     -1.72381539602712      1.54032003026185
  H   5.46368792887383     -0.89397129737429      1.11396442895881
  C   2.38433786869794     -0.03024775233683      0.13366609997580
  C   1.64666812010631     -1.18736775466321     -0.18685461667282
  N   2.32852901324650     -2.36804272373656     -0.24560483993449
  H   1.85310730275399     -3.18176029664165     -0.58989795304666
  H   3.33232193964581     -2.35452509405426     -0.33881498041575
  C   0.25929124037161     -1.35654863031553     -0.44351000195540
  C   -0.87838507518212     -0.60983714216427     -0.30674967776843
  H   0.02381561100214     -2.39141070480374     -0.67353033053999
  H   5.32396941139251      1.53015399630736      0.47794532543721
  H   3.36729895476309      3.15134932425096     -0.29962727592467
  H   1.10754631482773      3.13445365650807     -0.66494733236150
  N   -4.42900213440111     -0.53159010481916      0.26577280509548
  H   -4.82026529222419     -1.43256626204305      0.05615628588431
  H   -5.04959812816059      0.20353437984335      0.55572273845847
