33
Coordinates from ORCA-job ./opt_b97-3c_parallel
  N   -5.29324426143598      0.06335918025257      1.45089199946574
  C   -4.22164673925527      0.03676646284278      0.99007662789794
  C   -2.93773679739936      0.01227479242454      0.45137345434319
  C   -2.08104421877631      1.14543168215137      0.28515797395027
  N   -2.52802272805606      2.42798114705615      0.48341410222794
  H   -1.81732329121956      3.12490586960398      0.62677151193744
  H   -3.31257405241875      2.51650793117960      1.10858560062004
  C   -0.84030780829612      0.71870978402552     -0.19843143724982
  C   0.12297751227898      1.59676304860723     -0.81808868952833
  N   1.42485168262998      1.54114392197218     -0.86508751475405
  C   2.27148288476261      0.72808344838021     -0.22243292471099
  C   2.21300411657603     -0.79953797944634      0.01204826524456
  N   1.34137789578736     -1.66952294626746     -0.39348284814073
  C   0.06066106667970     -1.64574839056025     -0.74468156048188
  N   -0.35004755127410     -2.83747963620239     -1.34426580716790
  H   -0.99480562363112     -2.73046826769172     -2.11120268570680
  H   0.42570601410831     -3.44609704746152     -1.55390313878976
  C   -0.93299246128693     -0.72785529455993     -0.39004689015194
  C   -2.25661910131293     -1.12582010905097     -0.00843300088411
  N   -2.78824748141151     -2.38356041958309     -0.02264235966590
  H   -3.52157918046095     -2.55431873740671      0.64669955913026
  H   -2.12151837340889     -3.13463998216458     -0.12544658786688
  C   3.38607484902185     -1.15201512477946      0.70481333603174
  C   4.13017280659392      0.00392812305906      0.89187805778581
  N   5.32109832113126      0.10523049706664      1.50418252276841
  H   5.72298850922112      1.00547863142367      1.68801493923985
  H   5.70790122615531     -0.67578042977745      2.00143777593220
  C   3.46002419284882      1.14056849591011      0.30042274584508
  H   3.83169678892279      2.15259918089002      0.28979215089541
  H   3.64699220507502     -2.15243090679730      1.00601257385243
  N   -0.40108213147965      2.73191566886306     -1.39459993693649
  H   0.26720314434227      3.29144790471328     -1.89754322589635
  H   -1.32830612591251      2.68383566132746     -1.78114242613638
