33
Coordinates from ORCA-job ./opt_b97-3c_parallel
  N   -0.92418764600575     -4.38069598902174      0.40404290877306
  C   -0.62039683950890     -3.26459676316089      0.27919164873561
  C   -0.26425178438905     -1.89894270111817      0.12110765348912
  C   1.10161012973925     -1.70517739858082     -0.06394937561945
  C   1.97051211042772     -0.63555090674392     -0.19123672606218
  C   1.90705614439314      0.79527589036680      0.13939141275309
  C   0.84996058853868      1.63291186522557      0.41902464781575
  N   1.12600049872439      2.89126090046694      0.93741259699166
  H   1.89187180637147      2.93861821123526      1.59078310346251
  H   0.32285253098449      3.40719085315609      1.25474642637402
  C   -0.54698280947310      1.48284690115861      0.11438751725311
  C   -1.43880600302020      0.47898841294245     -0.06416327076330
  C   -1.37851299831155     -1.01008301669367      0.05027711545552
  C   -2.67414099256983     -1.46606093186364      0.00040543623167
  C   -3.57396222920100     -0.37141982161592     -0.20037411150098
  C   -2.83895045893088      0.80946411731306     -0.26757071055750
  C   -3.38118362339837      2.08422885507670     -0.37009644128649
  N   -3.85034125663446      3.15021596296978     -0.45335347586621
  N   -4.90213981103645     -0.49328265428879     -0.32140803704276
  H   -5.35511350741133     -1.37018975240575     -0.14616242169652
  H   -5.48247287088827      0.32318442415852     -0.39955361411200
  H   -2.97360625662094     -2.50006789365234      0.05190619319146
  H   -1.02433885104856      2.45743559025258      0.04995771908060
  C   3.28044368076197      1.22611457126161      0.06385273114865
  N   4.11349290532764      0.24329438655555     -0.27856072949309
  C   3.35382998637469     -0.86753608572574     -0.41902767654049
  N   3.96386634347374     -2.04666937777458     -0.70280667816994
  H   4.93229523570173     -1.96778427791439     -0.96092847964025
  H   3.44990632295629     -2.74100817309230     -1.21376709962904
  N   3.77413693057398      2.48772829153603      0.25089736950114
  H   3.15965722608147      3.24475843896542     -0.00793786620029
  H   4.71221077342508      2.58854816451725     -0.10545775642762
  H   1.62056276529260     -2.65681582550573     -0.10624903594900
