33
Coordinates from ORCA-job ./opt_b97-3c_parallel
  N   -2.34480606533707     -4.11179817307924     -0.64347166795199
  C   -1.80923357741704     -3.09168569189846     -0.49694261330179
  C   -1.14768605979130     -1.84071135645017     -0.32258127121298
  C   0.22596463250591     -1.91494763379586     -0.59280857448287
  C   1.30553785900801     -1.07473603829256     -0.41510127300431
  C   1.48466354902188      0.35143829154289     -0.13880688752033
  C   0.61957237760030      1.44098615573761     -0.47186152476379
  N   1.26129948226241      2.57013791025608     -0.87802805922692
  H   2.19917502075643      2.49731050831449     -1.22910133884578
  H   0.72941102571265      3.37159989285751     -1.17234332586530
  C   -0.78801440812273      1.52759210309060     -0.37529064685416
  C   -1.31643462239024      2.77706913428623     -0.78131903696640
  N   -1.70622905019114      3.81788749826132     -1.12936173825846
  C   -1.77181002150792      0.68125108266406      0.22347525990740
  C   -2.93439399763013      1.20568459596445      0.73509927848623
  C   -3.81627227880067      0.13831205751858      1.07839590131426
  C   -3.21697673704189     -1.08402325282713      0.73702164821751
  C   -1.95414899914809     -0.82514996346878      0.21632920610222
  H   -3.65392632947556     -2.05963740904569      0.86381420213247
  N   -5.01459263430299      0.29825076232373      1.64830923462769
  H   -5.38957649080751      1.21234780841780      1.82234956547331
  H   -5.60338425382736     -0.48896619989845      1.85004771530517
  H   -3.15461050583100      2.25346150373511      0.85357376364940
  C   2.84619909972833      0.52727522746687      0.16218977524622
  C   3.51588230865760     -0.73855721189798      0.04169111784707
  C   4.87291764259063     -0.92234116459579      0.33594832793792
  N   6.00317556581794     -1.00129249686023      0.60005628196025
  C   2.59018210853941     -1.68195395880429     -0.35691431347119
  H   2.77992429285521     -2.73324866081746     -0.49379849059676
  N   3.52809715937133      1.67959239405573      0.46304197179177
  H   4.44339759517261      1.54059238768707      0.86152777730616
  H   3.00381482465964      2.40461997689714      0.92321828616363
  H   0.52761638946248     -2.91074622154388     -0.89424399764427
