29
Coordinates from ORCA-job ./opt_b97-3c_parallel
  N   4.07538642003682      2.20834196405801     -0.12234632887017
  C   3.32223593615968      1.31984099317922     -0.06980687924130
  C   2.49407623342974      0.20232197944969     -0.02272385704903
  C   2.94490901802271     -1.13649325865358     -0.22597902417180
  N   4.20716270900188     -1.44813224424064     -0.51964908879588
  H   4.90192697158150     -0.72745052257731     -0.61421507940401
  H   4.49245520656907     -2.39945104917682     -0.65768081478530
  C   1.87670634695088     -2.03904108207585     -0.06649222828444
  C   0.71736624486639     -1.32808365656313      0.20344203803638
  N   -0.43300917113615     -1.91310618462738      0.44726802956826
  C   -1.69381149074730     -1.55454949248136      0.30532586166875
  N   -2.57569570490366     -2.49405116828701      0.74429481747229
  H   -2.19741320312510     -3.31391851951065      1.18518509038484
  H   -3.51836902490722     -2.22544903293865      0.95355466288896
  C   -2.26617887242314     -0.42751466643316     -0.36110340865275
  C   -3.48515694627397     -0.48347599134503     -1.05785999112895
  C   -3.85932453254678      0.81492810258285     -1.42367825739146
  C   -2.92238858042530      1.70566908696996     -0.90154338945814
  C   -1.90520370866623      0.96868754265671     -0.25956740958182
  C   -0.84911283750272      1.57188092699529      0.47331655035698
  N   0.43080722321780      1.22925468568489      0.52768712652836
  C   1.11281424850863      0.16317298217902      0.24233571787818
  N   -1.11473494214218      2.74063678871934      1.10177781972006
  H   -2.05167479777824      3.09335334752511      1.14139045448158
  H   -0.34778667349236      3.32553236914870      1.38356946130296
  H   -2.91647559254528      2.77600397111971     -1.04206682578251
  H   -4.72010292870000      1.07998351318255     -2.01821961310129
  H   -4.00775623520409     -1.39236794752077     -1.31337626126970
  H   1.93384249947459     -3.11186831841942     -0.14380617071907
