30
Coordinates from ORCA-job ./opt_b97-3c_parallel
  N   5.82706015222236      0.07048756716412      0.28168171564112
  C   4.67702063903055     -0.04037835772212      0.13700370766031
  C   3.29131896042359     -0.10275823574637     -0.04692650091356
  C   2.46648508492405     -1.22847378300985      0.07762630302528
  C   1.12837755692813     -0.84786663803170     -0.09251658600801
  C   1.12332265510502      0.59938745858773     -0.37112463514424
  C   0.15282914858445      1.52720263439365     -0.78236246709171
  N   -1.14522942919967      1.66224022869912     -0.71255100888523
  C   -2.10897068364720      0.88192525490963     -0.21678019554041
  C   -3.36492579150340      1.40281075180130     -0.01516805390642
  C   -4.23493630102745      0.37680973954374      0.46637685932283
  N   -5.53859372347219      0.56870228824946      0.75105622617493
  H   -6.06148548975769     -0.15109146014912      1.21544767023858
  H   -5.89733304845667      1.50185162724958      0.83460128879503
  C   -3.53562463471682     -0.82486053334288      0.54138737498270
  C   -2.19890507262249     -0.59974245525022      0.16134504710776
  C   -1.29936569787744     -1.63402263938638      0.13552100472879
  C   0.09103328559848     -1.79715775918032     -0.06191135240848
  N   0.47549283934332     -3.11967976291757     -0.08783750422251
  H   -0.24622768560435     -3.80550201091686     -0.21416438983440
  H   1.33404916169221     -3.33995740635661     -0.55753399054692
  H   -1.78345822885974     -2.58330259102689      0.35200815401377
  H   -3.93812571262109     -1.77460452540488      0.85809392868766
  H   -3.63729703252036      2.42439117909038     -0.22428990870763
  H   0.60596497616987      2.40071105338907     -1.25178262511391
  C   2.47690942025301      1.01768141196540     -0.34316722896275
  N   2.96534606569586      2.27734517604548     -0.59491750249782
  H   2.40699535218866      3.04540819512805     -0.26551437029613
  H   3.94031746696543      2.40026080903868     -0.37314820574077
  H   2.82798035566044     -2.19854808031459      0.37339019234143
