24
Coordinates from ORCA-job ./opt_b97-3c_parallel
  N   4.10974056524677      2.06392896786463     -0.25148428691672
  C   3.45418631033831      1.10658118994800     -0.17862026611714
  C   2.65770655971771     -0.03959477156686     -0.08759218720693
  C   3.06161350886917     -1.38121681638191     -0.15851478802823
  N   2.07558607228815     -2.27348837021388      0.00743090436855
  C   0.93421353037531     -1.57920376392626      0.20013428921629
  N   -0.19002785366204     -2.22711255019378      0.29593808840564
  C   -1.46888486849255     -1.89133744833922      0.24112867515523
  C   -2.16738623486828     -0.75029573446397     -0.13211612839686
  C   -3.53134981799758     -0.85402371820420     -0.52028754068292
  C   -4.00041331882793      0.39774745513968     -0.86253137735943
  C   -2.97683066830245      1.34195281123395     -0.61895154857095
  C   -1.83615829123649      0.68047604110057     -0.17943260320657
  C   -0.71087992759566      1.34879276753570      0.37820114753672
  N   0.56534217217034      1.00921978493278      0.32554301742550
  C   1.26790887210207     -0.06396163280473      0.17401887385098
  N   -0.91502711425338      2.57294727551475      0.91754035843483
  H   -0.11300674517694      3.09650142946533      1.22320302622672
  H   -1.82570672304026      2.84909588850587      1.23137836653452
  H   -3.06438577244395      2.40874917156646     -0.75638134115181
  H   -4.98821557409601      0.62949423251902     -1.22898414010288
  H   -4.07321671023985     -1.78435681970926     -0.58252626365168
  H   -2.11684366083214     -2.74629451928593      0.42466948958564
  H   4.07653896115809     -1.71740339843679     -0.31713032614848
