24
Coordinates from ORCA-job ./opt_b97-3c_parallel
  N   -4.09563006363818     -2.40884088310964     -0.17447449079459
  C   -3.49044455446523     -1.41915689231870     -0.09180934566784
  C   -2.81091311161305     -0.20077718868548      0.02066587900127
  C   -3.41533117786498      1.03481341179317      0.52875068116899
  C   -2.47960244672351      1.99785964955331      0.58350696259182
  C   -1.21672301074760      1.46257585965240      0.08629491645861
  N   -0.18130681908175      2.22023955160758      0.05303382170993
  C   1.12305302264397      2.03065566554706     -0.20996423545071
  C   1.90889011436102      0.91922647966017     -0.06484725579607
  C   3.34545628533135      1.04256023925370      0.06072887882146
  N   3.94386477406167     -0.10640742951925      0.22981468597742
  C   2.93081522546741     -1.06291885138047      0.16597864831145
  N   3.29225905593115     -2.35350269051018      0.22073436330995
  H   4.25836609659568     -2.56080306285603      0.39932946280718
  H   2.61870351482090     -3.07405428701158      0.39947703652767
  C   1.65495260911404     -0.50396401826288     -0.00340441623638
  C   0.56248085473594     -1.25494999277778     -0.51375890571275
  N   -0.70222406167186     -1.02796903037284     -0.64797506946448
  C   -1.47650779571999     -0.00134268634635     -0.26564301539443
  H   0.85312457385649     -2.23173302604870     -0.90476283615246
  H   3.89439903111016      1.97415026686017      0.07282050179781
  H   1.64428783029451      2.96079424580016     -0.41495340938006
  H   -2.59963798242135      3.02942938738981      0.86734623700139
  H   -4.45703223897712      1.11904140628235      0.79389377176490
