29
Coordinates from ORCA-job ./opt_b97-3c_parallel
  N   -5.48805337955035     -1.05200536363728     -0.13788193447072
  C   -4.53270731806491     -0.39961926199353     -0.01518197694330
  C   -3.47157464299340      0.48726172114817      0.19086108360713
  C   -3.65468856378498      1.75467458695865      0.88515403621754
  N   -2.55956400582089      2.42191128315296      1.08925596464233
  C   -1.55346476022007      1.67698517061849      0.45126279733363
  N   -0.44200148860388      2.25357277760760      0.22832429671299
  C   0.73280916913578      1.97445046066551     -0.34823886046399
  C   1.51201311046844      0.87224025270490     -0.19913080381845
  C   2.94344102295301      0.88896454665856     -0.36439032247400
  C   3.44028023070003     -0.38021279561770     -0.03528073527816
  C   4.78724793744326     -0.74352835003385     -0.00749637348930
  N   5.91185722675680     -1.04437559724993      0.01866372976980
  C   2.34125853777590     -1.23126094543376      0.28411617137912
  N   2.47937221157920     -2.53017472615624      0.58005575506362
  H   3.39331406711736     -2.94500612637836      0.61829308143017
  H   1.73353886054514     -3.04233786161323      1.01228361404806
  C   1.12662195256957     -0.50761185478160      0.15234007998765
  C   -0.05890839538534     -1.17640088494626     -0.08854831524097
  C   -1.39680382418249     -0.82454095187851     -0.35009453319550
  C   -2.15056475923321     -1.92069178955105     -0.85067337757597
  N   -2.68732969571920     -2.85086604874297     -1.29407398459312
  C   -2.10644383819354      0.34875469959854     -0.01368147531810
  H   0.07134611767699     -2.25207503104846     -0.15095996383574
  N   3.69992764763089      1.93481290018145     -0.72868325092006
  H   4.70093232878977      1.86230283200009     -0.67573239444914
  H   3.32446843816128      2.86406025926957     -0.73401888484994
  H   1.14973661038396      2.83808974982372     -0.86123390055706
  H   -4.61427934733575      2.11700313607364      1.22918581788023
