33
Coordinates from ORCA-job ./opt_b97-3c_parallel
  N   -4.34720977362066     -2.40861171214944      1.33951721746868
  C   -3.81157349608254     -1.44078159577929      0.96956244744762
  C   -3.24575283323251     -0.24501458205417      0.53942655734138
  C   -3.98776348346937      0.94858597807310      0.29013677925135
  N   -5.28009769946758      1.09384852379806      0.60673295824167
  H   -5.80270052621423      1.88756265861451      0.28658057494558
  H   -5.79726471966163      0.31467859952811      0.97571384297820
  C   -3.15398659714083      1.91488309073632     -0.29755198649285
  C   -1.85839695373641      1.40445627450981     -0.38972307018921
  C   -1.93679555453608     -0.04780425391084      0.04420734809277
  N   -1.10750640850481     -1.02946712158266     -0.11440958678076
  C   0.13266468293756     -1.25217790393045     -0.51450768939842
  N   0.27348903449291     -2.49837434980781     -1.09650050620438
  H   0.94161428149911     -2.57939105051790     -1.84553523984153
  H   -0.59989197594177     -2.97823386716730     -1.24406279342772
  C   1.30282508515119     -0.51528347732467     -0.28110402231424
  C   2.58243506924973     -1.09104625349155     -0.14250721395893
  C   3.52575721592897     -0.05291397441287      0.10109686483989
  C   4.88236244933393     -0.23758391280275      0.36577078996410
  N   6.01467590067477     -0.39058492404062      0.59605960490336
  C   2.84987753416164      1.17841749143682      0.08710768456882
  N   3.45793423233056      2.39252072581373      0.22749142516833
  H   2.92840289036358      3.11632998872284      0.68016487936157
  H   4.41870715241582      2.36780355774294      0.52668570124887
  C   1.46392998072328      0.94599035678915     -0.16502374237122
  C   0.62415659402136      2.00425400234704     -0.45143150482723
  C   -0.74532865812036      2.18710857168703     -0.64413483116832
  H   -1.00261033582875      3.20963748664935     -0.89956512003658
  H   1.15948232772141      2.94437670773511     -0.54437889350280
  N   2.93685674536278     -2.40678874138760     -0.20250696708569
  H   2.19971141133568     -3.07423291080845     -0.04084168872297
  H   3.81431164408211     -2.64432680459967      0.23122229490909
  H   -3.43228581342986      2.93833939308205     -0.49388856171056
