31
Coordinates from ORCA-job ./opt_b97-3c_parallel
  N   -4.62613962218438     -1.05836371202636      1.10321524790314
  C   -3.79261801526843     -0.29811468862269      0.82178850518900
  C   -2.80202491786980      0.65842363544168      0.55262578563094
  C   -2.92559150773851      2.05327766644762      0.92616480328445
  C   -1.79226797514629      2.68007445749903      0.52995478955588
  C   -0.88199782469539      1.70226371147624     -0.04905578635634
  C   0.36923856216313      2.10831636705300     -0.47694671101312
  C   1.60879475172897      1.48340390276915     -0.65978390700033
  N   2.68005733544105      2.31729919686329     -1.09254730610380
  H   2.37229874635257      3.25638116780991     -1.29602424246281
  H   3.13675673306457      1.94821161415471     -1.91563819410067
  C   1.97341791449571      0.20865007873649     -0.20979682141807
  C   1.24471759794061     -0.97911607045486     -0.02548374444238
  C   2.16603285077882     -1.87922698256253      0.58134687785019
  N   3.39494743333848     -1.34208541874086      0.83043185354734
  C   3.32572561997714     -0.11266597636662      0.34459173135933
  N   4.34464408318627      0.73971781653779      0.42561124714114
  H   4.18414474924511      1.69393035022232      0.12582681259125
  H   5.11928311173662      0.50248591053305      1.02238667946588
  N   1.93125342349702     -3.16003630550096      0.87336237397888
  H   0.99607314532554     -3.52436593369181      0.86308530014949
  H   2.64321167102652     -3.68673564530228      1.34702570551895
  C   0.01823750395327     -1.43800186648694     -0.61874165043976
  C   -1.18446339690158     -0.82721237646477     -0.67177394737844
  C   -2.19426143409423     -1.48797478073716     -1.42728621057673
  N   -2.99719740058336     -2.02959759272116     -2.06813054143647
  C   -1.56141161069948      0.43906805273353     -0.04330960941768
  H   0.07491933472924     -2.41109990525786     -1.10065551047540
  H   0.43716983776263      3.19064304326534     -0.57583913493868
  H   -1.55459564048639      3.72537663378290      0.65307120639101
  H   -3.78347285467563      2.47737693490872      1.41988348950592
