30
Coordinates from ORCA-job ./opt_b97-3c_parallel
  N   2.81726844134681      3.18371197709647     -0.03878910075096
  C   2.10541372204758      2.26443323333815     -0.02669763051082
  C   1.11648186137721      1.24810234492677      0.04006963453928
  C   1.61645646307603     -0.04675436476683     -0.07495087567366
  C   1.03971093934553     -1.40824144470298      0.34397761292318
  N   -0.06690195990675     -1.77507169303460      0.97819466601611
  C   -1.29633517582643     -1.32084188358390      0.91473105802457
  N   -2.15882667804379     -1.93771089081333      1.75925592469020
  H   -1.85126744377749     -2.78401654784903      2.20501658194493
  H   -3.14598553028933     -1.75449275390925      1.68733978114887
  C   -1.86293915303034     -0.32519310809191      0.04937477560063
  C   -3.17623399698142     -0.35958552649280     -0.44058488478910
  N   -3.54947525969195      0.80992635263877     -1.01826544519339
  C   -2.52422941041688      1.64626648619975     -0.84209084505410
  C   -1.41751489347934      1.02597942038791     -0.20935741052559
  C   -0.23555025566077      1.73906836571518      0.06988235973045
  N   -0.37339626049382      3.06962341792545      0.26261057592320
  H   -1.29235061929221      3.46661068555356      0.30567715762764
  H   0.41246683533120      3.69377406904781      0.18882272437677
  H   -2.53937789585125      2.62911962343649     -1.29098727275148
  N   -4.09742032507643     -1.40127548986611     -0.34258372606600
  H   -3.72940973617255     -2.29919636121982     -0.62034232978221
  H   -4.92223853325877     -1.18117124223424     -0.88157575437374
  C   2.06959435498619     -2.29277925569000      0.10238353508085
  C   3.14950264880227     -1.52948422868049     -0.39987404225259
  N   2.88813823681225     -0.20458508202732     -0.47436192250250
  N   4.34323544237896     -1.97970580508755     -0.78649744839710
  H   4.56899291948157     -2.95591587694430     -0.78249069643746
  H   5.02323216898094     -1.32097142498101     -1.12385813992447
  H   2.04957536088239     -3.34715296499040      0.31880056015859
