27
Coordinates from ORCA-job ./opt_b97-3c_parallel
  N   -3.68260954694792     -2.75045136142490     -0.06709211498318
  C   -3.08215912675622     -1.75195737230856     -0.08241261905190
  C   -2.47434193303880     -0.49762285870983     -0.08454617228004
  C   -3.20394094630185      0.72977366082041      0.10556266380905
  N   -4.52364798179566      0.76122636278975      0.29153842805150
  H   -5.01257260871841      1.62726257523779      0.42186145404163
  H   -5.05891556092532     -0.09012540480984      0.29997886528900
  C   -2.32498374226862      1.81036699393499      0.06004662099158
  C   -1.02233612956141      1.34968258526628     -0.15167734651155
  N   -0.02966501564089      2.20292990679516     -0.20801416684449
  C   1.29129337802278      2.07923198392900     -0.24176813758354
  C   2.19864271300814      1.05780478592888     -0.03679037722217
  C   3.57597720981324      1.36016939887258      0.07122224748114
  C   4.30700218619819      0.20084218611453      0.24040142872152
  C   3.42115135432758     -0.89743431119331      0.19668905492169
  N   3.80318940090245     -2.19456959048480      0.37703358307717
  H   4.75068221987968     -2.42914852969191      0.13859886835626
  H   3.14023553985611     -2.92048246849022      0.17010303728321
  C   2.09275259379598     -0.41349380920678      0.01581712579298
  C   1.05694818227290     -1.27043663593972     -0.31675537600037
  N   -0.25641311610952     -1.18413564770075     -0.39717952742290
  C   -1.11857085462715     -0.20446898337681     -0.24618138651204
  H   1.38340376159393     -2.28758144131872     -0.53978558753361
  H   5.37640522874369      0.13147977785055      0.37121423382847
  H   3.97770759299732      2.36116828043429      0.04197078988701
  H   1.77615776099975      3.04270650461584     -0.39304229927308
  H   -2.58182491511945      2.85178882416624      0.15781852098657
