29
Coordinates from ORCA-job ./opt_b97-3c_parallel
  N   -4.63256400670412     -3.08734729116115      0.22373421301730
  C   -4.15002764586790     -2.03011927727094      0.17027373504729
  C   -3.53181757072036     -0.77634484220722      0.10369488078056
  C   -4.14254168781600      0.44579936410224      0.10854706847186
  C   -3.14123775808745      1.45803402446693      0.02034457072367
  C   -1.88328186809427      0.89702048258620     -0.03337428564091
  C   -2.07630314881227     -0.56491407563246      0.00946513487527
  C   -1.27124325625882     -1.65848969296659     -0.05818014835619
  C   0.12215440346426     -1.90041482263500     -0.14530081515080
  C   1.23951048714303     -1.11951077764350     -0.10981910896646
  C   2.52176118050721     -1.77907669068368     -0.12447005406892
  C   3.50368836965594     -0.83838774130259     -0.01832840993490
  C   4.89140619493316     -1.03444252912355      0.04398126642542
  N   6.04853256595886     -1.12137367107662      0.10600995577868
  C   2.87639178431518      0.47447348992309      0.05162539366975
  N   3.60962075833867      1.60209799789471      0.12647457985682
  H   3.18685860637261      2.47079122988058      0.39701315986397
  H   4.59960297857411      1.53199804157991      0.28475395045397
  C   1.48619775766597      0.32128320239190     -0.01846780764838
  C   0.65028490392962      1.44983132594901     -0.08783394267724
  C   -0.70010567809006      1.71397483901585     -0.11609718360526
  C   -0.97347234979623      3.11027667705300     -0.21442853175054
  N   -1.18526376194628      4.25005347437356     -0.28913726787966
  H   1.21921337196838      2.36954796279147     -0.15557505868531
  H   2.66367575444046     -2.84518339135679     -0.17759007402476
  H   0.34372944035588     -2.95880180229109     -0.21767627303229
  H   -1.82944717201823     -2.58833725807973     -0.03624715882726
  H   -3.34711329016122      2.51535213927748      0.00123585873516
  H   -5.20472456325014      0.61906665534498      0.16777558834915
