26
Coordinates from ORCA-job ./opt_b97-3c_parallel
  N   -4.92249283001109     -0.41222898253177     -0.13460100119228
  C   -3.60375779508105     -0.18482567359845     -0.05762793608311
  N   -2.75800109548104     -1.21249566595808      0.14302176075360
  C   -1.50873287432414     -0.68573631293305      0.14258835550061
  C   -1.60097092474980      0.83223756445077     -0.03129356879619
  N   -0.74173835052865      1.85188146675878     -0.01079376811739
  C   0.56469578934073      1.92728695787274      0.08414797277710
  C   1.66118337534124      1.06022799590378      0.06686557110462
  C   2.95194147379180      1.59535480269296      0.08363460265044
  C   3.90594177947188      0.57489064894486      0.00243388443588
  C   3.24462892040208     -0.64906381725918     -0.05299898338322
  N   3.84902862102859     -1.88920717681418     -0.08240278058267
  H   3.36727298326906     -2.59535067800114     -0.61375261736843
  H   4.82645189711140     -1.86541741550912     -0.32041538297465
  C   1.82888876982969     -0.41261839536916      0.01622951510943
  C   0.93886402878348     -1.44584145005877      0.14735248832574
  C   -0.45242891913134     -1.56492554685393      0.22943099406434
  H   -0.79998801069215     -2.58554736595013      0.33568689488053
  H   1.41630179055770     -2.41920178892040      0.20958566515618
  H   4.97723371859916      0.70977839493866     -0.01878259024398
  H   3.16964680019396      2.65193867178150      0.11987559730151
  H   0.89400941724802      2.96474927575754      0.16290148166345
  C   -2.95298651435364      1.06693981525575     -0.17993079069588
  H   -3.40136572740545      2.03756045728564     -0.30961256297990
  H   -5.26197583491131     -1.33447110971467      0.07398024848626
  H   -5.57931612689878      0.34327933482933     -0.17485582179173
