31
Coordinates from ORCA-job ./opt_b97-3c_parallel
  N   4.50579234710382      2.00629124255560      0.17792538238323
  C   3.73333627044170      1.13467825962881      0.09331314212860
  C   2.83859820323119      0.07621720333451     -0.00839975419968
  C   3.16635321433610     -1.27619421971629      0.24264876994443
  C   2.01108005915200     -2.07610490210289      0.09594605485489
  C   0.93086720061494     -1.27291936142986     -0.22879785841730
  N   -0.21768416746596     -1.80592203855257     -0.62196824613328
  C   -1.45996370844603     -1.38525266326145     -0.63215042058157
  N   -2.31228175057157     -2.21429160324423     -1.28788494039828
  H   -3.30541757812596     -2.05925912700392     -1.23243929723725
  H   -1.97556347990970     -3.12912034163216     -1.53095938765269
  C   -2.06440533753929     -0.24579114401488      0.00092828520489
  C   -3.36271077761085     -0.24008442607639      0.52800313625140
  N   -3.77836777510960      1.00402345501815      0.88339852411083
  C   -2.79279884718961      1.83081144693212      0.53359477331913
  C   -1.67197737664394      1.14871824943265     -0.00395907890712
  C   -0.51610483321138      1.81793399908201     -0.43779168637400
  N   -0.65431235179931      3.12791871806509     -0.79308114838265
  H   0.13762266791354      3.74447885703380     -0.75494253505927
  H   -1.56004037497561      3.55629137919183     -0.75822561613733
  C   0.82389838454530      1.35816718022507     -0.46999701208909
  C   1.43449666745323      0.15878396311799     -0.24369129734981
  H   1.53664028070325      2.16766215210629     -0.60379097533871
  H   -2.85375048054353      2.87994877173250      0.78623021169903
  N   -4.23705027120224     -1.31621975069173      0.67238886371740
  H   -3.81989720236746     -2.12554504357367      1.10817034932272
  H   -5.05483501600888     -1.02540989303314      1.18813397381933
  H   1.97691084082818     -3.15221484890001      0.13261622299227
  N   4.39290003437768     -1.71449087824855      0.54986495038296
  H   5.14664838974220     -1.06249822019772      0.67926549650354
  H   4.54677976597815     -2.66527288297808      0.82732454842343
