27
Coordinates from ORCA-job ./opt_b97-3c_parallel
  N   -5.92422473840347     -1.30337759401771     -0.03742760606718
  C   -4.80566159134807     -0.99944047083706      0.04046498757710
  C   -3.45407081563031     -0.62535654311858      0.13860528973045
  C   -2.37739366360860     -1.47702794825572      0.45653746835953
  C   -1.18492455891755     -0.75594044624223      0.39323859231167
  C   0.01454317734199     -1.46420458852694      0.64293419277171
  N   1.28433259850839     -1.27117413641676      0.44405934254160
  C   2.00235933861138     -0.23338513568236      0.03144606401091
  C   1.72540133021766      1.23939031685827     -0.16270405091975
  C   2.98422340388173      1.84077707551720     -0.50579837816530
  C   3.93860730711040      0.87391122543739     -0.58503304228831
  C   3.35879999615798     -0.39693202891598     -0.24940144634020
  C   4.06204415971723     -1.60618974637536     -0.17737440070662
  N   4.68432780972082     -2.58673164087154     -0.12909837537444
  H   4.97502105056573      1.01364933021665     -0.84791416450566
  H   3.11884189262788      2.89311144093752     -0.69859516445923
  C   0.61313785864307      2.01468092257362     -0.10250930679865
  C   -0.79368050290715      1.81829584057952      0.06925351121194
  N   -1.47202375605336      2.99175809186676      0.14321378417470
  H   -2.42553103626254      3.01308081276186      0.44956668307003
  H   -0.98695023494393      3.86842701936935      0.11435759242417
  C   -1.55072012188908      0.63688299066557      0.07605121456572
  C   -2.95127973395777      0.66092425228372     -0.07435572012457
  H   -3.55808450925971      1.49801396086376     -0.37702364179769
  H   0.84781763096754      3.06424817043740     -0.25857315423613
  H   -0.18939249664557     -2.46156478971059      1.02978392412089
  H   -2.45643460724453     -2.52903218899763      0.67397747171367
