28
Coordinates from ORCA-job ./opt_b97-3c_parallel
  N   -2.03112166088996     -3.59341058346713      0.61817588407587
  C   -1.48182990751558     -2.58414202614197      0.43386793418380
  C   -0.83756744437447     -1.34212448515463      0.20074291103870
  C   0.52597399870703     -1.44994318531937     -0.06775028858987
  C   1.56947775351247     -0.55944080866293     -0.25696852493565
  C   1.72352982531722      0.84339347512986      0.13131965537958
  C   0.82917412169763      1.82312676262723      0.44270378934567
  N   -0.45447514105693      2.00515895659689      0.11996951866530
  C   -1.48034704451204      1.26661720360792     -0.11287729040013
  N   -2.64783237863393      1.88154047974228     -0.49634467545090
  C   -3.57970802317651      0.94386896912357     -0.43852837316766
  N   -4.85486575846872      1.20294968442644     -0.73577643248696
  H   -5.57530042784948      0.52202541719413     -0.58675432622931
  H   -5.11848926732801      2.14436493711087     -0.96901133420290
  C   -3.08260362757782     -0.36216303589582     -0.06306166894710
  C   -1.73475998265739     -0.23605086418225      0.08034075736054
  H   -3.65453071958752     -1.27530582529255     -0.02859718763804
  H   1.23742152517732      2.69711485832095      0.94886883660437
  C   3.15757576367133      1.04003997771506      0.17668371631708
  N   3.83718835274912     -0.04753269249044     -0.18267267868013
  C   2.90529737505167     -1.00601552228398     -0.43294271490705
  N   3.32319812896238     -2.25044348280975     -0.74720119033775
  H   2.71687807177697     -2.85695613530031     -1.26714350831976
  H   4.30727972201954     -2.35759221959911     -0.91842634052227
  N   3.80995700563538      2.17252197674489      0.51411483174556
  H   3.33242325253274      3.05230693650097      0.45953434618989
  H   4.79404623178350      2.19348279645795      0.31015103455297
  H   0.84181568913450     -2.48784876089859     -0.10271269034389
