32
Coordinates from ORCA-job ./opt_b97-3c_parallel
  N   6.26657499223624      0.11569580956749      0.11288723373967
  C   5.11716466553421      0.25541955324125     -0.00428071879009
  C   3.72516130789112      0.34329062701335     -0.13436207336932
  C   2.94835781272196      1.49093670058792     -0.30923712772760
  C   1.58999556067007      1.14059828192699     -0.30547150522588
  C   0.66073884915814      2.18541500052491     -0.35556012929251
  C   -0.69834890310659      2.33993362861384     -0.22679535991860
  C   -1.77997687825049      1.47336364217660     -0.05901644621714
  C   -3.06863121582708      1.95373210105328      0.12896955843633
  C   -3.97567055788063      0.87383018253896      0.18810228300789
  N   -5.30384918482909      0.95933262277861      0.35096439128946
  H   -5.85695502739676      0.12669335560862      0.45132332156583
  H   -5.74127982014259      1.83452676539017      0.56801292694527
  C   -3.25614492338403     -0.32951358167609      0.02172966341944
  C   -3.82967071722457     -1.59674462441485      0.03325520866734
  N   -4.33398684469416     -2.64903218840300      0.04397548175461
  C   -1.86793885919678     -0.01569111594053     -0.12164438080265
  C   -0.96662912242597     -1.02464022314491     -0.32480867419910
  C   0.43991174360470     -1.21701522012680     -0.40351530671730
  N   0.75824329525322     -2.50107457592448     -0.70125041889336
  H   1.72338655657013     -2.77252627249020     -0.83181929195026
  H   0.03840897032338     -3.18309180909888     -0.84765918281746
  C   1.52394516610329     -0.32905502276207     -0.19177086699882
  C   2.85959296785767     -0.77281157035279     -0.05493254883096
  N   3.31313096190410     -2.09074827600959      0.09908802068454
  H   4.32251137866778     -2.13410123434341      0.13293764966845
  H   2.94249840002647     -2.53997610935942      0.92602104446010
  H   -1.48125279541180     -1.97691564569131     -0.41405871636495
  H   -3.33573994074835      2.99653385569786      0.19645622056902
  H   -1.00799700414899      3.37946898757840     -0.24119329565991
  H   1.16405411814278      3.13940057217070     -0.47393963621650
  H   3.32667534640313      2.49737853176925     -0.37310234151433
