26
Coordinates from ORCA-job ./opt_b97-3c_parallel
  N   -0.42398334976252     -3.05694101822482      0.41922566748364
  C   -0.18525856055784     -1.73939078903024      0.13700611913340
  C   1.21341248991769     -1.47953624165447     -0.05866298508382
  C   2.00774476340514     -0.38858943693559     -0.08447101292585
  N   3.35661274537211     -0.63165262797236     -0.38971100036541
  C   3.95130206921669      0.53734032529959     -0.31660041867359
  C   3.08175546741035      1.60226533193019      0.06147832398020
  C   1.82321215791447      1.06964053998270      0.21309533754977
  N   0.78241945621167      1.84210611558124      0.58731540836248
  C   -0.49725468524217      1.62432158623735      0.51128377454162
  C   -1.36068356251361      0.59326931108779      0.06817411505149
  C   -2.72064929034731      0.89896920165005     -0.13796586536579
  C   -3.44842012001573     -0.30104509124311     -0.34576799768095
  C   -2.58161455084079     -1.35966950062838     -0.23840640465742
  C   -1.25992802263177     -0.87477635494440     -0.00822835750613
  H   -2.85313375544272     -2.38514775522547     -0.43408077739977
  H   -4.50079824086929     -0.35984053677012     -0.58122298082102
  N   -3.29894231175659      2.14746784008847     -0.10240192016319
  H   -2.73368771881640      2.91280105767432     -0.42646683731707
  H   -4.23607800429525      2.19378420514066     -0.46318879309473
  H   -1.06042975618828      2.48959668904694      0.86500506677568
  H   3.33672923163023      2.63750757169821      0.21704871199315
  H   5.01065058560906      0.62514602327852     -0.52355491335617
  H   1.79355145059690     -2.37995670140194     -0.23929399283049
  H   0.25535701451572     -3.74950649735960      0.16152247284468
  H   -1.36602483901979     -3.38074892470532      0.52773414812523
