22
Coordinates from ORCA-job ./opt_b97-3c_parallel
  N   4.27242260471681      2.01865216186450      0.44711200187463
  C   3.55610166378865      1.11653336480882      0.28635087876547
  C   2.67405979630027      0.04870313567389      0.09345106181928
  C   2.99985573211801     -1.25665893537660     -0.34253274757586
  N   1.94918625867330     -2.05913612876130     -0.48763011120882
  C   0.85230400838302     -1.33710608768559     -0.12785147859929
  N   -0.27647445434644     -1.96240697803551      0.01359972430704
  C   -1.52577603226662     -1.65493264871292      0.28588823226778
  C   -2.28359413366247     -0.51869680104195      0.06231133464807
  C   -3.68652021048151     -0.53849270211984      0.06159559040907
  N   -4.22263061209743      0.67732942271149     -0.16771843485597
  C   -3.19499524646183      1.53084060937808     -0.29131736929340
  C   -1.93898275536053      0.90120659536880     -0.16526417456592
  C   -0.77121772949450      1.62385436966610     -0.03299477144564
  C   0.56783820595909      1.29012397627448      0.17703681118599
  C   1.26820912511371      0.10050377398808      0.16195089975783
  H   1.21216563530688      2.15802365572841      0.26706715153878
  H   -0.92764823288175      2.69509276065010     -0.10913413807200
  H   -3.36117984527117      2.58869065094875     -0.43471564062705
  H   -4.31399174995458     -1.40791667614235      0.18968055867843
  H   -2.09025169952028     -2.50402808154115      0.66862185729400
  H   3.99906411384037     -1.61345966604318     -0.54766256650348
