26
Coordinates from ORCA-job ./opt_b97-3c_parallel
  N   -0.02859195828737     -3.01204693081502     -0.92687638560261
  C   0.12406753146001     -1.81647173820709     -0.31681004640903
  N   1.38911487114890     -1.54820278470448      0.01957719067319
  C   2.06489452476304     -0.47518859864503      0.20737895077988
  N   3.31219661782860     -0.55688094571878      0.77587247606415
  C   3.79870322091008      0.67645411120933      0.72770392129659
  C   2.95123081565551      1.64485850547143      0.13384635235809
  C   1.77890260688869      1.00416284216434     -0.19326339868734
  N   0.73272177377932      1.60811017770725     -0.73860219179823
  C   -0.55659429444378      1.36082919659838     -0.66442376786957
  N   -1.32153614202035      2.24221018461589     -1.35379637404021
  H   -0.87958422935429      3.07285932790147     -1.70505101694095
  H   -2.32560165263829      2.20154737960421     -1.29279070823476
  C   -1.27287925862588      0.33666112650923      0.05537060245034
  C   -2.60029622091242      0.43741564169128      0.49509233208828
  N   -3.15222471156997     -0.77142966662238      0.79044683665642
  C   -2.22494499473856     -1.68152163123292      0.48549947856576
  C   -1.02151779877558     -1.08641334512397      0.04216700878021
  H   -2.38265980950416     -2.72947613771635      0.69689557548237
  N   -3.38714628787318      1.58158278598376      0.57545439275077
  H   -4.27350581829914      1.36721939737316      1.00822070615771
  H   -2.94168946684799      2.35608818139880      1.04423014140042
  H   3.15553958783460      2.69299319577383     -0.00489726621216
  H   4.78533163687748      0.87554257240932      1.12868710163170
  H   -0.93472457629903     -3.30725727363794     -1.23889370161332
  H   0.72526350984335     -3.67634567938794     -0.89399184482756
