33
Coordinates from ORCA-job ./opt_b97-3c_parallel
  N   -4.50553986682474     -1.44584857675712      0.25156058045523
  C   -3.63505000583569     -0.68552474560707      0.09951244344854
  C   -2.70487941894092      0.34878078243433     -0.00304446531086
  C   -3.07082897769593      1.70462436463884      0.40055505775632
  C   -1.95202986783922      2.51184817182676      0.37537814351740
  C   -0.85668881487629      1.74134426781331     -0.06842752673846
  N   0.25322883893698      2.30798612507850     -0.44823014938240
  C   1.47830014130196      1.86780658825238     -0.71462534953666
  C   2.18909386107897      0.78081299907870     -0.27446253428828
  C   3.62767032885081      0.86536496422547     -0.11828778491634
  C   4.05146614226107     -0.20222905390222      0.65286615973888
  C   2.94291630561883     -1.02665703483917      0.92867339652086
  N   3.05808653186942     -2.21335441092106      1.61132909701424
  H   3.88987398558269     -2.30677330087935      2.16919945353388
  H   2.22997797041304     -2.53239267964083      2.08692363167390
  C   1.77001505421935     -0.48936696255858      0.33400467115611
  C   0.67201073057639     -1.27849661840009     -0.06835320305657
  N   0.82081407623328     -2.63346451463081      0.02783138394649
  H   0.08315635677189     -3.21654533458509     -0.33067998026205
  H   1.74684776439200     -3.01862010763376     -0.04109250098552
  C   -0.61156964272735     -0.86011377823714     -0.55635836288829
  C   -1.34839455618909     -1.86660912160191     -1.22041411217908
  N   -1.88146702076270     -2.71455812111233     -1.81618828903674
  C   -1.33587420430658      0.30808412796777     -0.22633320396010
  H   5.06068899048816     -0.38047433808887      0.99315439786160
  N   4.43798441156563      1.84621883422280     -0.61666276604808
  H   5.31978911717751      1.97353077935121     -0.15119458464002
  H   4.00790942045913      2.71516560582763     -0.87742667593298
  H   2.05351957266951      2.61821326960133     -1.25471490595315
  H   -1.91460201324232      3.57688890149267      0.52685133566215
  N   -4.32781298583015      2.02325778478798      0.72461686429412
  H   -5.04505765171571      1.31820196050122      0.72491632858766
  H   -4.55467323007861      2.92475006929346      1.10021821474757
