31
Coordinates from ORCA-job ./opt_b97-3c_parallel
  N   -6.32250811042296     -0.84460766279827      0.76436819071930
  C   -5.19545975458741     -0.81087606140204      0.47826008800358
  C   -3.83912262925729     -0.68042787266148      0.15410329316232
  C   -2.94410126559645     -1.66883401218106     -0.22129966578500
  C   -1.66291147894346     -1.09514007796815     -0.39684571212489
  C   -0.60314475566903     -1.93420953120724     -0.72111168542388
  N   0.71289438963289     -1.85178778055728     -0.61975734620407
  C   1.54175959327385     -0.89420825308634     -0.30929296077774
  C   1.39679796122738      0.63248248660471     -0.21901599339503
  N   0.41323957764214      1.43663503143835     -0.49302186299146
  C   -0.89935725128468      1.36849513845080     -0.59628533395397
  N   -1.44238411019546      2.52122783989684     -1.07731004309396
  H   -2.35287476727942      2.50791246678552     -1.50357313848617
  H   -0.79358761326388      3.23198484264659     -1.37029321509325
  C   -1.80241958894828      0.34659069749925     -0.18787390053772
  C   -3.14727859551290      0.57846721063036      0.14742555297803
  N   -3.78298733977184      1.76628291264744      0.36558259668726
  H   -3.21993024856370      2.53688370619081      0.68368476897454
  H   -4.68279035536284      1.70663088308134      0.81482846492512
  C   2.64184275616423      1.12582577887161      0.20969409258035
  C   2.98652910506007      2.46092808587597      0.41814436671994
  N   3.33067075524045      3.55737191302618      0.60544901891493
  C   3.53436183538983      0.03260761559401      0.38722794175874
  N   4.79120981608313      0.13100790654119      0.79274193400808
  H   5.19751407814822      1.02678590776504      1.00267884884660
  H   5.36448987875368     -0.68990253275743      0.89164305483259
  C   2.87050673740522     -1.18002900206366      0.06306276218818
  C   3.48248010015823     -2.43115982913651      0.14088200171122
  N   4.07435074822662     -3.42926494018654      0.23337400529064
  H   -0.92372260574533     -2.92584494808400     -1.03184075304686
  H   -3.16715593730170     -2.71917982495590     -0.30669470488773
