33
Coordinates from ORCA-job ./opt_b97-3c_parallel
  N   -6.64498773510855     -0.55596996366192     -1.08799458393781
  C   -5.54192235475617     -0.48507748090188     -0.73115988367753
  C   -4.20954235251457     -0.38289041218010     -0.29570318641070
  C   -3.45353001699386      0.82199874044692     -0.24688941880285
  C   -2.16264511001533      0.53335630238172      0.17178617186903
  C   -1.26248406343138      1.55621240557071      0.60057972792991
  N   -1.85017768140657      2.69683662164473      1.00517088128646
  H   -2.82915564690099      2.70133469361993      1.22119758579873
  H   -1.31126123545398      3.51097802983492      1.24990104038849
  C   0.15985340927511      1.55495437960944      0.55858607266422
  C   0.74664393332979      2.75109228474694      1.04123249307648
  N   1.14473892635624      3.73156781877739      1.52411600169240
  C   1.07471255541068      0.63832791256274     -0.01470484838074
  C   2.27542298164179      1.07838620967349     -0.59207195331727
  C   2.64738065692569      2.36154555472005     -1.00391284999633
  N   3.04779387225015      3.37040143603821     -1.42242751694144
  C   3.09734363962759     -0.05174919589821     -0.86501859343034
  N   4.26632710755106     -0.02534527498564     -1.48282436046511
  H   4.66797301764576      0.84474313108116     -1.79077499947432
  H   4.77112371037276     -0.87750031469860     -1.66471072280837
  C   2.42556258683790     -1.21859691924403     -0.40826000425680
  C   2.98265762304352     -2.48267950550599     -0.62512405619264
  N   3.56067499243298     -3.45324188806163     -0.90327677676278
  C   1.16874460375008     -0.84591652925323      0.09947823184467
  C   0.29566147106731     -1.76596063369300      0.71518085744391
  C   0.88643191980516     -2.95602816761056      1.22871590212288
  N   1.31451472836539     -3.91119829111400      1.73088824543236
  C   -1.10139161587294     -1.78620057800900      0.77749335396204
  C   -2.10351809226378     -0.91157344678974      0.40183258917049
  C   -3.40475775114490     -1.41969785637558      0.15461840419663
  H   -3.68841644721535     -2.45602449854008      0.23191157297993
  H   -1.48241619960876     -2.75098979001607      1.09080923376506
  H   -3.83746510820246      1.78995515683199     -0.52453591416839
