28
Coordinates from ORCA-job ./opt_b97-3c_parallel
  N   -3.88748165790951     -3.11701698772334     -0.71187745665241
  C   -3.43584890125011     -2.05284038857292     -0.58601128923829
  C   -2.88096222026577     -0.77819585459666     -0.44037544311643
  C   -3.49947823574656      0.43869816511416     -0.56079654328377
  C   -2.57522511189447      1.49184112924341     -0.27894533919793
  C   -1.33138000422138      0.97521667997504     -0.01023885030515
  C   -1.50836356754596     -0.52102659969822      0.00024342382355
  N   -0.80092200484548     -1.48097403185364      0.46598500852215
  C   0.47325021466114     -1.65306030323793      0.82673133739389
  C   1.59286461217375     -1.05527721427876      0.32242251944106
  C   2.85852520633620     -1.78464194819083      0.15461072249345
  N   3.73906453764101     -1.08629683223338     -0.54607545769453
  C   3.14330293741360      0.11579851590561     -0.79322314323999
  C   1.83877650489272      0.22456385050367     -0.32101881078857
  C   1.19377565073743      1.48860368004378     -0.10572052634525
  N   2.01819974129706      2.56379283887745     -0.22031138871602
  H   2.99917087463803      2.44265092533377     -0.04889810066322
  H   1.65419504612096      3.48867700110589     -0.06339979389544
  C   -0.16008938981175      1.76762138290776      0.18381415881713
  C   -0.43868566494667      3.12027055642731      0.49006883601254
  N   -0.64243440447988      4.23863324489648      0.74115881294253
  H   3.70486386460261      0.87333082980164     -1.31977068264277
  N   3.12641480190596     -3.03555782885687      0.57833115028323
  H   3.95317430080673     -3.46534180570987      0.19962980280301
  H   2.38380534522883     -3.65779525451959      0.83488806476158
  H   0.60576729753126     -2.52391705117479      1.46360059347090
  H   -2.81221247460741      2.54109716030145     -0.33882158908908
  H   -4.53325572356335      0.58421236980926     -0.83228401279531
