26
Coordinates from ORCA-job ./opt_b97-3c_parallel
  N   -0.65690315414047     -2.82350677548032      0.38629957733824
  C   -0.18428240872237     -1.54865946803596      0.27016552364332
  C   1.22428746173060     -1.47889404458140      0.52488663457687
  C   2.20426418950877     -0.56069655832503      0.30928475914153
  N   3.50760463008314     -0.98223708288679      0.34107404717878
  C   4.16538609860834      0.00304024381588     -0.26705503568863
  N   3.47860007258232      1.10197404727966     -0.65657119726270
  C   2.22221524266574      0.86445374130828     -0.24111069830993
  N   1.32460882299301      1.81234955320970     -0.23559023616237
  C   0.05309310037860      1.83341625929838      0.12413018795272
  C   -0.98001400795014      0.92408037872920      0.11244337417089
  C   -2.34342312735452      1.36405412441124      0.13218406616239
  N   -3.20711033232710      0.36827052442420     -0.12771247864134
  C   -2.47303815721081     -0.74805615044535     -0.26987303188451
  N   -3.12554022368976     -1.94442152119999     -0.50745253610162
  H   -4.11179052032890     -1.79203659273817     -0.65937910279068
  H   -2.72350711429414     -2.49810780617577     -1.24971836297854
  C   -1.08235265590023     -0.53917721185151     -0.08923760790760
  N   -2.82555785480987      2.61267330239580      0.35265207690716
  H   -3.77192269158576      2.76370714728194      0.04793683488493
  H   -2.21286405144340      3.39798438387490      0.23293588333610
  H   -0.25138959580503      2.84297651335665      0.40206867779598
  H   5.23198122346251     -0.06387597024286     -0.43717259070188
  H   1.65115101024447     -2.42952606267001      0.82746813832150
  H   -1.64793040137329     -2.96786893346343      0.51125933707706
  H   -0.05101427812215     -3.51465179838883      0.78883934714347
