29
Coordinates from ORCA-job ./opt_b97-3c_parallel
  N   -2.85479913762497     -2.72032781108135     -0.20426920296365
  C   -2.45782961339070     -1.43153937801597      0.02421407239076
  C   -3.21384463620372     -0.41437897602248      0.51590875439542
  C   -2.39882018855200      0.76957007111504      0.52603454083447
  N   -2.84685422960296      1.94907489852549      1.00114673568549
  H   -2.27696018672402      2.76073720215917      0.79797900192995
  H   -3.83649438432773      2.08676606854359      1.10173192935249
  C   -1.10057932882740      0.48509562944269      0.06096481327881
  C   -0.13785621054072      1.51949899875786     -0.28060019945527
  N   1.14186535183685      1.58073325645037     -0.27194864301547
  C   2.10594834353106      0.67367310155554      0.07032976091742
  C   3.33824608262140      1.08700184744834      0.50408961308736
  C   4.23241418129062     -0.04538088374789      0.61393459646636
  C   3.58042032749734     -1.15533645304052      0.19217864063694
  C   2.20706973390676     -0.78840254977303     -0.13318420387813
  C   1.31408562434397     -1.74401204393836     -0.51051481143759
  C   -0.09709214772216     -1.79546586649577     -0.60565040058130
  C   -1.08096820211179     -0.91888276609525     -0.24122956450717
  H   -0.44353658068758     -2.78403878850672     -0.88560252600452
  H   1.76966535614498     -2.71718836464240     -0.67043896243958
  H   3.96080960509649     -2.16400518151462      0.14313882280604
  H   5.25384749330005      0.00592625969348      0.96009835359980
  H   3.59760618740684      2.11747182746252      0.69146234079859
  N   -0.75904583771761      2.74865464491635     -0.63487310190055
  H   -1.45560756506821      2.63613106521453     -1.35959152410738
  H   -0.04383280365549      3.40162845144186     -0.92301321785666
  H   -4.23112692089833     -0.47204111266289      0.87149076520136
  H   -3.69013503883201     -3.00935534367864      0.27562105412804
  H   -2.13874820728931     -3.42479445571139     -0.17851157136211
