25
Coordinates from ORCA-job ./opt_b97-3c_parallel
  N   -2.81019773339219     -2.59571587548744      0.11012060529533
  C   -2.35118574137407     -1.33828559564306     -0.03899862387185
  N   -3.12073851079931     -0.37216167290100     -0.50595765226381
  C   -2.32848619433016      0.74951128408022     -0.51537595473732
  N   -2.91106485620970      1.92341054855191     -0.84197936296059
  H   -2.32881082970638      2.69464003504570     -1.11549571452820
  H   -3.82075046829812      1.86333332814833     -1.26517688759831
  C   -0.99875682488263      0.51159997498417     -0.12033532774200
  C   -0.97888439573593     -0.88485078126216      0.23302890803425
  C   -0.00419157249166     -1.75283918496530      0.66803377361675
  N   1.31657592112837     -1.75425619055018      0.45428846000757
  C   2.16827749890968     -0.85457447537272      0.11855430395851
  N   3.40451239122619     -1.21982895831575     -0.38905676634223
  C   3.94604604737863     -0.07919440051419     -0.73065874387066
  N   3.23422933130062      1.09054230906574     -0.50271758592748
  C   2.10927080093384      0.68180415767392      0.04248293004405
  N   1.18835639220658      1.53666998686103      0.47582574849316
  C   -0.10304229227285      1.52286413477656      0.40531851222913
  N   -0.70823842805393      2.66351022929094      0.87626199058245
  H   -0.08157539404723      3.30837209824948      1.32950037086296
  H   -1.62889728432432      2.58687801194618      1.27416118998831
  H   4.93247353891219     -0.02378041411358     -1.17121584283056
  H   -0.34769171403618     -2.68411656304190      1.11152512613420
  H   -3.70938226646345     -2.79801812486805     -0.29106218448758
  H   -2.16345583427727     -3.35977051923902      0.15805592651285
