32
Coordinates from ORCA-job ./opt_b97-3c_parallel
  N   -3.95800149557207     -3.31913532867929      1.04472868659422
  C   -3.50894670390765     -2.28158797743631      0.76592018208872
  C   -2.94171895236302     -1.04690903529650      0.43608420693767
  C   -3.65908251453284      0.11509763740382      0.07821262902233
  C   -2.77555154475520      1.12829951649362     -0.23581739742956
  C   -3.08448280944564      2.44800478560866     -0.57016508229138
  N   -3.27721414671676      3.56351643482589     -0.84628457485531
  C   -1.41785926674181      0.63438527392323     -0.03790638104887
  C   -1.54816881624430     -0.79418635011703      0.32651253329353
  C   -0.60596612201236     -1.79957599071045      0.41797615744363
  C   0.75360193589545     -1.87554073701151      0.12643669358142
  C   1.78372973558207     -0.99625175554934     -0.13882650919609
  C   3.08571209099702     -1.50865684887505     -0.40578004154751
  C   4.02382444202870     -0.47849231643554     -0.30786463238555
  C   3.36918777579749      0.71178364954371      0.00188226232546
  N   4.01066118473638      1.93028781933485      0.11887279302333
  H   4.95216700767918      1.92307549896030     -0.23975183263382
  H   3.49134835516932      2.71879690003003     -0.23692837399826
  C   1.96237497688451      0.46695844709242      0.09508008010657
  C   1.02653301349982      1.45982392453873      0.29219710617303
  N   1.45414411294214      2.69713711429496      0.74025267162518
  H   2.22773607871473      2.69835883522530      1.38534705758935
  H   0.72578348404923      3.34094465829359      0.99831392787025
  C   -0.37357000711425      1.49452957655782     -0.05775589215446
  H   -0.67748195090264      2.51014858061775     -0.29966362915436
  H   5.08577004960301     -0.57532869306228     -0.48146069430359
  N   3.39229527994608     -2.82514651815687     -0.63529812513975
  H   4.33298907450920     -3.00582410922389     -0.93953003669495
  H   2.71715138846272     -3.35950923256307     -1.15431549877101
  H   1.08923176684346     -2.90776161800254      0.13009235230755
  H   -1.04039071847074     -2.76211030044783      0.66206012113161
  H   -4.73392099496062      0.19385211312251      0.05764423019094
