29
Coordinates from ORCA-job ./opt_b97-3c_parallel
  N   -4.80652793810908     -0.55492095482486      0.80732121402990
  C   -3.54579062205988     -0.38829207283796      0.39562331502118
  N   -2.98902697906257      0.82846079950053      0.41317755595984
  C   -1.71943198144975      0.65497413829525     -0.03556559939166
  N   -0.94814689811795      1.67478536798408     -0.20126794721843
  C   0.36767586657809      1.84677478332918     -0.32472554265681
  N   0.69104621503666      3.05272206727113     -0.86943200581868
  H   1.65795822385753      3.30784746451396     -0.94749182086823
  H   0.00229819991736      3.78437676203198     -0.82824106820305
  C   1.41372586634982      1.04057399359985      0.16346965953674
  C   2.57034501024462      1.58960956394932      0.76798487654447
  C   3.41412712242368      0.56040457868608      1.14598539683959
  C   2.84485428196442     -0.66105438491394      0.72088054355526
  N   3.49826238511447     -1.88592303990440      0.81000091023881
  H   2.88306970991974     -2.68417613865347      0.82518722951281
  H   4.16510550964901     -1.92514052754662      1.56411042392951
  C   1.58737230192361     -0.40120563076370      0.13333708972624
  C   0.85174163401160     -1.34377477880703     -0.65939864957931
  N   -0.43552580761737     -1.48321025835136     -0.85847933525936
  C   -1.48459584344229     -0.83705245337628     -0.35798210856030
  C   -2.69105215984606     -1.42709300632958     -0.08974451633342
  H   -2.93099268026225     -2.47072060041051     -0.20995117655801
  N   1.59704943831740     -2.34201200962165     -1.24205457192997
  H   1.08182074286218     -2.94234225764044     -1.86342213575304
  H   2.55081330074910     -2.14153468285076     -1.49015057849799
  H   4.35108803795934      0.66053126603781      1.67378874464969
  H   2.70126106858997      2.63185033177598      1.01599175728090
  H   -5.31157611989716      0.23978997216147      1.15727996905636
  H   -5.24062542040406     -1.45741403160440      0.82758974854669
