26
Coordinates from ORCA-job ./opt_b97-3c_parallel
  N   3.09443830338198      2.69948363957823      0.50938784341631
  C   2.31514522918613      1.86024679753958      0.30993096466374
  C   1.23215789736515      0.96199077060830      0.12049796939211
  C   1.62459321373102     -0.35334305750619     -0.18043901116226
  N   2.90945957429325     -0.58034178048894     -0.47186495607090
  C   3.01785609903551     -1.93245939436150     -0.53041637333111
  N   1.93623313395357     -2.64031300182852     -0.24736804071899
  C   0.96556757058199     -1.69803588594420     -0.01741222280659
  C   -0.23483640331106     -2.13152217080260      0.46293602662649
  C   -1.49614712059275     -1.51574423765906      0.64693504364045
  N   -2.40885996906864     -2.28993975702583      1.27577244648112
  H   -2.22981477593358     -3.25997190456678      1.46126531775071
  H   -3.32733205554710     -1.93926516975505      1.47226713324526
  C   -1.94794042154454     -0.28732641769785      0.12760795712409
  C   -3.29336465763174     -0.11455988385525     -0.28249309468143
  N   -3.51443932476954      1.08794303826840     -0.81605946831552
  C   -2.35517737750706      1.76933850040609     -0.69132539585521
  C   -1.31993615330316      0.99037381680213     -0.15373436748380
  C   -0.05371586833844      1.56797892736235      0.16529658214585
  N   -0.08286589417302      2.88814607944828      0.42928128042172
  H   0.76318761642564      3.42414846048535      0.52935289659678
  H   -0.96023962743455      3.34616647063087      0.58427621809690
  H   -2.27226820518822      2.77714973763000     -1.07043419986240
  H   -4.05482963022247     -0.88065821843313     -0.31881726814013
  H   -0.21476199452683     -3.19256353889179      0.68888236931508
  H   3.95110418803847     -2.40076245794308     -0.80905497018839
