29
Coordinates from ORCA-job ./opt_b97-3c_parallel
  N   -2.75434228317881     -3.10258052384083     -1.01609193763900
  C   -2.10128735731280     -2.17498376089659     -0.75853347031181
  C   -1.29593763107365     -1.04664773669719     -0.43622491903449
  C   0.03694965750556     -1.35982387895780     -0.34625263268598
  C   1.25365569960536     -0.68897513360534     -0.09833634408507
  C   1.62565344684571      0.70748214049996      0.01034961190152
  C   0.92797673757425      1.86870067097449      0.12779611911315
  C   -0.44960690016425      2.20662117850286      0.18848892165557
  C   -1.63562044860896      1.55207357050288      0.06071785554001
  C   -2.86932018126543      2.33989871994228      0.18469138061766
  C   -3.92536265930982      1.52902129567229     -0.02474023922809
  C   -3.42084065241215      0.19612134325338     -0.28456227193175
  C   -2.04901149430426      0.17600595497963     -0.23454085224053
  H   -4.04176606992742     -0.66262055143033     -0.48647737195235
  H   -4.96912798541407      1.80106834906358     -0.00905304621925
  H   -2.87951663641353      3.39698701214808      0.40025704358650
  H   -0.58315918173958      3.26681510837535      0.37975029649534
  H   1.54446193495512      2.74844704315802      0.26972543869962
  C   3.11349966097180      0.74717006510138      0.07404454017825
  C   3.58369809268823     -0.52885000417025      0.09236580012431
  C   2.45794682392243     -1.41219859668094     -0.00837039115429
  N   2.60959906276478     -2.75428040771166     -0.06462601128462
  H   1.81468907112280     -3.34886184938152      0.08627949615369
  H   3.48994956704028     -3.14821051275340      0.21222923227082
  H   4.61569457249747     -0.83933153560859      0.14801689662103
  N   3.84311554100015      1.89626386388508      0.19037025947111
  H   4.83427754512686      1.79725227177580      0.05244107040907
  H   3.47515903199602      2.71624156686116     -0.25987670678883
  H   0.19409163400859     -2.41192854776074     -0.55509138588112
