29
Coordinates from ORCA-job ./opt_b97-3c_parallel
  N   -5.69033734883373     -0.03773682129816      0.25293107819988
  C   -4.52779821212120     -0.01092749186094      0.17347823063690
  C   -3.13702725110695      0.01772177194742      0.07958493153111
  C   -2.27629135063189     -1.12991771819896      0.04290411186081
  N   -2.77627101138573     -2.39128035379234      0.04214260587059
  H   -3.74048057773068     -2.50546901072087      0.30313937534275
  H   -2.17802164511015     -3.14645589459461      0.32174402067510
  C   -0.93922057000778     -0.71569317140302     -0.05572114321347
  C   0.07152169828745     -1.67485788601175     -0.27439385725804
  N   1.36960621738466     -1.73740203850878     -0.31745308141601
  C   2.33434867032692     -0.80435684609266     -0.15683839100388
  C   3.64171737945501     -1.19488819622632     -0.06170234632659
  C   4.43028585818170      0.00275721704853      0.05860679033750
  N   3.70630652017895      1.11174971068031      0.04056463300717
  C   2.39273354431481      0.70813836121142     -0.07067730965324
  C   1.43839987774211      1.68493122068288     -0.05105409097445
  C   0.02923722106492      1.70164392469755     -0.06974758150795
  C   -0.95385402204003      0.75722118071449     -0.05239763656530
  C   -2.34648924423971      1.16045171879009     -0.00252180795614
  N   -2.82258171067002      2.42864622391374      0.05568417167882
  H   -2.26532177237693      3.16847002371441     -0.33075838294575
  H   -3.81237283426178      2.54885028778762     -0.07748664396644
  H   -0.33897177980620      2.72169194609661     -0.04275509471799
  H   1.88255676893181      2.67100885149372      0.01272612965119
  N   5.76973733775767      0.03904681786819      0.14193830572193
  H   6.21204724539311      0.92515173440622      0.31307478309333
  H   6.29673769489606     -0.79475099382660      0.31870738847063
  H   3.99117777266460     -2.21345849357722     -0.10454526930860
  H   -0.35627635815672     -2.66121616424093     -0.46619555756446
