24
Coordinates from ORCA-job ./opt_b97-3c_parallel
  N   -2.28065462239160     -3.02468577384929      0.61514740764577
  C   -1.72141047612518     -2.01820021042239      0.46231655423170
  C   -0.85474263956079     -0.91056854406982      0.21709418673026
  C   -1.48309406532299      0.31391822112096      0.28563864369454
  C   -1.11654808966033      1.73758980072857     -0.17646062233977
  N   0.00354638272103      2.41534152512433     -0.38647822617321
  C   1.25706038609961      2.07807333265843     -0.22134299619774
  C   1.96625308210947      0.88558640375071     -0.04690284951173
  C   3.36872837510664      0.94853091637753      0.06873855679638
  N   3.94135304529024     -0.25926432074852      0.18259516888210
  C   2.94357454721637     -1.15177124494190      0.08455214939559
  C   1.67535581258197     -0.54648024187905     -0.05553967954847
  C   0.49930991302025     -1.30694813710818     -0.14117770401079
  N   0.62634609029097     -2.59192404839464     -0.51038788442071
  H   -0.13202026608766     -3.24639446522344     -0.41159168017975
  H   1.51023411287617     -2.94231663603573     -0.82686116656302
  H   3.15345042075547     -2.20286804156649      0.22208162826288
  H   3.95979199216910      1.85258917234651      0.07617404067226
  H   1.91801965566700      2.94353368714543     -0.24586006042353
  C   -2.35077357555471      2.35988054699220     -0.27618091567267
  C   -3.31495910094448      1.46072080223288      0.20762445597800
  N   -2.82047762081531      0.27007953068658      0.54765412212742
  H   -4.37001209560523      1.65984655108127      0.33859732020998
  H   -2.49132066963597      3.38756817919402     -0.56345433448541
