30
Coordinates from ORCA-job ./opt_b97-3c_parallel
  N   -3.78252142292850     -3.49068384162487      0.57993884172246
  C   -3.52557174800125     -2.37026179028416      0.39668284807402
  C   -3.13317603130769     -1.04343956285021      0.19639999695842
  C   -3.90681810898860     -0.00266543400635     -0.27451424367702
  C   -3.12419529427248      1.17422820017614     -0.37661821588786
  C   -3.60524403475619      2.43949424813714     -0.73649829200348
  N   -4.02340580901903      3.47962257256962     -1.04273741807407
  C   -1.81044469236938      0.89872034446519      0.04837942822513
  N   -0.95427140117922      1.86645625475338      0.29326700821347
  C   0.31164942577254      1.89534345426879      0.61602122312095
  C   1.39552787772331      1.02038402255856      0.46668202489311
  C   2.67721842891021      1.57543637620174      0.53984437234809
  C   3.62255444575454      0.61615211949773      0.15885185389549
  C   5.00882978755335      0.77514631967739      0.02450768834834
  N   6.16240998150885      0.83631431219580     -0.10881358708733
  C   2.94693415202490     -0.59234130233581     -0.12112645380056
  N   3.58708965109481     -1.77030751834833     -0.48692183824807
  H   3.21207135571590     -2.19743784894176     -1.32249453528573
  H   4.58660197257641     -1.65679052515302     -0.58327510899175
  C   1.55869751685139     -0.40523628233287      0.10934242988706
  C   0.67133784406566     -1.47210502341344      0.32805107562254
  N   1.17485949049221     -2.72413919594391      0.39451380399079
  H   0.57335179291377     -3.50393918121146      0.58558783271629
  H   2.17453393918505     -2.87034241671201      0.42572086282042
  C   -0.75949504720483     -1.46923803723908      0.47879667415080
  C   -1.76373038081926     -0.57522969435069      0.32411253676966
  H   -1.13791121792996     -2.47431768875424      0.63913949362897
  H   2.89331102835320      2.60590591371904      0.76647660648335
  H   0.61944925541457      2.87265320295149      0.98355566160158
  H   -4.95399114473374     -0.06653332277147     -0.52132036441470
