32
Coordinates from ORCA-job ./opt_b97-3c_parallel
  N   -2.35027745841733     -3.13947002069394     -1.03683893500086
  C   -1.72949109983979     -2.20644848790721     -0.73119675501103
  C   -0.86355163706177     -1.11425781867252     -0.43754905550233
  C   0.48865020600171     -1.54918482186129     -0.28746144680988
  C   1.66223796849002     -0.94104623585739      0.04372990865148
  C   2.15396642457999      0.41761313070106      0.05105429160497
  C   1.57103660962633      1.54943104856606     -0.60553918217936
  N   0.33616317925324      1.93248137458066     -0.68999393759100
  C   -0.82434503394014      1.49321620546941     -0.18489612802131
  C   -1.79167027348771      2.38378565677626      0.21921314906097
  C   -3.00533831057337      1.68074126303584      0.44123936029785
  N   -4.15135456872732      2.21267640011752      0.86722194530220
  H   -4.95075129817873      1.62227096536122      1.02895920145005
  H   -4.20064793368808      3.16627501188109      1.17289625337607
  C   -2.82400409417978      0.30785628519154      0.14450742925893
  C   -3.83951704688551     -0.60434372379183      0.42878075648042
  N   -4.78102935757260     -1.22833118967399      0.71889743135289
  C   -1.45570344566668      0.11604558132182     -0.19423579725180
  H   -1.66385289912205      3.45299866378986      0.24954626958580
  N   2.46780071296828      2.41677990080094     -1.20196882193792
  H   3.28242225907505      2.00869125311955     -1.63069112692856
  H   2.02099895906339      3.14036701265437     -1.74209441669053
  C   3.49096273696109      0.31117896891267      0.46348685572758
  N   3.87032668599000     -0.97311888087936      0.76866051969536
  C   2.82065698337287     -1.72651583622361      0.49912860678792
  N   2.85821474506273     -3.06520949791883      0.66371598952446
  H   2.00303062452770     -3.57663080635679      0.77598420901069
  H   3.65270091040909     -3.42760079856232      1.16157561528348
  N   4.42988556706060      1.28159836185395      0.56643144909657
  H   5.25017987487792      1.03658927538236      1.09355383013199
  H   4.12174183423935      2.23622019845215      0.62496345509055
  H   0.55674786056682     -2.62677953088806     -0.37232236274497
