25
Coordinates from ORCA-job ./opt_b97-3c_parallel
  N   4.98591199184274      1.51402871655535      0.12939766118544
  C   4.10518328569315      0.75536103574759      0.11668502358505
  C   3.06572176297581     -0.18021473913621      0.11283169023393
  C   3.17309377932689     -1.56191976531576      0.39950621767405
  N   2.03444937305523     -2.24111518176267      0.32977749701717
  C   1.06675893340081     -1.34686613361465     -0.02670165179556
  N   -0.15270524669443     -1.74269793481741     -0.08405845058144
  C   -1.36916825108696     -1.21311704728916     -0.22209738750621
  N   -2.26659574835671     -2.12895293848168     -0.65524854393513
  H   -3.16504793948094     -1.84577793535443     -1.00758686873141
  H   -1.93599173618748     -3.06033853949374     -0.83762371358733
  C   -1.83644670265716      0.07304045523360      0.11708015502958
  C   -1.20597952934869      1.36776003182686     -0.14331148464775
  C   -2.26650346783460      2.29834392152713     -0.03046426399973
  N   -3.42478069636324      1.73567524298296      0.30548189838217
  C   -3.18604515782076      0.39816021093745      0.37798990995022
  N   -4.23565391295460     -0.44500392327428      0.62971312471721
  H   -4.02548123807723     -1.28666702203332      1.14080220642689
  H   -5.04891643363879      0.04014120744427      0.97515594969573
  H   -2.18301829308396      3.36681466781838     -0.16498432398827
  C   0.05606530361665      1.79018702502404     -0.53359891839946
  N   1.25840315171104      1.25012919165283     -0.46511716839241
  C   1.71886338485069      0.05998956093947     -0.20801940703436
  H   0.08385913148382      2.81992160596009     -0.88270835168755
  H   4.09655368832858     -2.06877716237683      0.64465950418891
