27
Coordinates from ORCA-job ./opt_b97-3c_parallel
  N   2.39568972901823      4.11517810931631      0.13266269572013
  C   1.99840402628965      3.02582945794381      0.09073455994836
  C   1.37072759760957      1.74429339898550      0.02962863996358
  C   -0.03460584358094      1.84728411283960     -0.08543339725822
  C   -1.09818737404659      0.98263229084558     -0.09182382704343
  C   -2.39740372101137      1.51626844071749     -0.15243028019073
  C   -3.33238313880780      0.49137145298499     -0.05511922295013
  C   -4.72991616747299      0.60850838537606     -0.03925095746860
  N   -5.89144825240452      0.63482464034130     -0.01439739157564
  C   -2.65025552871169     -0.75404383151274      0.05943991507167
  N   -3.28281422029646     -1.94093039915637      0.14008105065118
  H   -4.28107152387495     -1.94554716399575      0.25960043961644
  H   -2.80735317547018     -2.75130689048288      0.49172547569497
  C   -1.24940490092663     -0.50399046795583      0.00916137759602
  C   -0.36636865609872     -1.55049191675290     -0.05909163134072
  C   1.02883916579455     -1.72163194893809     -0.11677568152045
  C   1.40010182705933     -3.09487667807463     -0.23219452224289
  N   1.58038257242309     -4.23759674020192     -0.32638930151045
  C   2.10722777474388     -0.82912304387098     -0.03866043661649
  N   3.34742041565279     -1.34118964586159     -0.02590577477206
  C   4.15863451972366     -0.27106206182644      0.10671720242609
  N   3.57132429097737      0.92691706060569      0.17201855822135
  C   2.24761922608208      0.66310595629507      0.07913093890658
  H   5.23162951156330     -0.38182778137973      0.15840622861584
  H   -0.85824313959765     -2.51517951108112     -0.09188597208489
  H   -2.63201580396671      2.56494377475477     -0.22532067470596
  H   -0.35019523457030      2.88071806098481     -0.15950729935159
