30
Coordinates from ORCA-job ./opt_b97-3c_parallel
  N   6.64214615141510      0.37121100755618      0.69301663974071
  C   5.50687830624411      0.35537001806633      0.44630458768226
  C   4.13482103978941      0.32428080993449      0.14357590042164
  C   3.30375183448610      1.42444580807398     -0.04368421611366
  C   1.98592663361699      0.97056047969007     -0.28753420521709
  C   2.04791372348221     -0.49131820053472     -0.29538482421100
  C   3.36157213523089     -0.85427999115472     -0.03810400149439
  H   3.74227860235258     -1.85816609807027      0.05475823609599
  C   1.04059457825016     -1.43865326216036     -0.64919675971870
  N   -0.24013418798019     -1.44970272701310     -0.34331877502744
  C   -1.20146488433215     -0.61779836088084     -0.08159272762910
  C   -2.45508176699230     -1.08515106578316      0.38559443195849
  C   -2.78472360259279     -2.40206529531526      0.70628755459069
  N   -3.11880289954702     -3.48226866835116      0.98266829866636
  C   -3.38403350570876     -0.02414108939222      0.32050821743590
  N   -4.67053226946523     -0.09187795676608      0.64341224709373
  H   -5.27142711603432      0.70745440706336      0.54168161538501
  H   -5.06996532636639     -0.94720955468831      0.98871520219655
  C   -2.71955758564082      1.14494818851918     -0.15918721741721
  C   -3.34839727437308      2.38231678270707     -0.29116072090318
  N   -3.91597934647121      3.39468791162637     -0.39229475238652
  C   -1.35570163985353      0.85481133902395     -0.34836890304921
  C   -0.41651322055559      1.84088322954505     -0.60121511499263
  C   0.96771431976581      1.88760956661564     -0.52395610743021
  H   1.34567207652245      2.90126946864484     -0.60567977825194
  H   -0.86537356366765      2.81487438918277     -0.76039515441407
  N   1.45528236441136     -2.56691216559806     -1.26581397614361
  H   0.78737132300854     -3.30155162423682     -1.42217606812630
  H   2.34895469821794     -2.61108613614964     -1.71704160309034
  H   3.60120296748761      2.45837146904611      0.01492976564991
