31
Coordinates from ORCA-job ./opt_b97-3c_parallel
  N   -3.28750305764854     -2.11995597777253     -1.70852784808618
  C   -2.53096529047951     -1.42592769560370     -1.15977483013889
  C   -1.51664853305806     -0.67008200332473     -0.52555834855722
  C   -1.95335997932821      0.56109643491183      0.00929240097830
  N   -3.23636997975946      0.80762717454181      0.20453420369865
  C   -3.30975432642005      2.02503383629888      0.87003431402380
  C   -2.10304571679506      2.61958263112145      1.08998645196383
  C   -1.14442223123513      1.77173489629031      0.45379650811854
  N   0.02876831922074      2.16121258308971      0.09297290881075
  C   1.06991014851561      1.57157454481538     -0.50653373667976
  N   1.80932995852369      2.45793471693103     -1.28782903698841
  H   1.35619371539844      3.35366657737505     -1.38728597165264
  H   2.12589946802126      2.07664174791177     -2.16539189633424
  C   1.60210267701084      0.32599004077532     -0.21965647291139
  C   3.02006250983463      0.12363070308403     -0.03109125602402
  C   3.20237022043643     -1.09215039714193      0.61246198802778
  C   1.95255900433613     -1.71329719352328      0.77545615424349
  N   1.81532254161987     -2.98881153128834      1.28925322982860
  H   2.60914080127035     -3.30548950921429      1.82089294689167
  H   0.94829686448377     -3.16686535640181      1.77034342443231
  C   0.92364306582762     -0.88867145389913      0.25349263799983
  C   -0.32025193893542     -1.39182456788328     -0.20774222435481
  N   -0.42234829310919     -2.74186816171842     -0.33106077877403
  H   -1.27368683237894     -3.13981919647348     -0.68965752132188
  H   0.41218478993456     -3.29419149926298     -0.41680815563183
  H   4.14889866243622     -1.49550536647598      0.94042897786778
  N   4.01886365286884      1.00842733259662     -0.34162111717178
  H   3.70563753303017      1.95075593954835     -0.53272467093828
  H   4.82880342948476      0.96461972348896      0.25508583975818
  H   -1.89288170080218      3.58246033527292      1.52196791267982
  H   -4.28291089110555      2.39667849262994      1.15766630994189
