26
Coordinates from ORCA-job ./opt_b97-3c_parallel
  N   -4.04828878342745     -2.16472343273044      0.02156189129937
  C   -3.49532301071435     -1.13974647584589      0.00475743465303
  C   -2.77737109140596      0.05862390880915     -0.02296430366928
  C   -3.30028076132380      1.34826980836866     -0.02191917195642
  C   -2.25589729102894      2.27458781492418     -0.07717661959467
  C   -1.02747418554922      1.61098787560689     -0.10470879838128
  C   0.17143722954966      2.31559817196875     -0.14654960599653
  C   1.50645111584052      1.96849713126920     -0.12011553694640
  C   2.23374099344403      0.78492533983604     -0.04762456666737
  C   3.63816118221048      0.84471377151585      0.06559691621378
  N   4.21049299435013     -0.36276382970107      0.15469706135687
  C   3.21007888997146     -1.25938764346534      0.06403885062472
  C   1.94364761186097     -0.65890231969710     -0.06242767166735
  C   0.76205909233031     -1.39695207370255     -0.22566303734042
  N   0.88975302294002     -2.73380968534610     -0.42526379502280
  H   1.77614262126273     -3.13958345768886     -0.65362408349447
  H   0.08070520479392     -3.31350621186532     -0.54634094544637
  C   -0.60831477013980     -1.00192517992495     -0.15126926362573
  C   -1.33569807690543      0.14693437711991     -0.07811590921647
  H   -1.26011497790211     -1.87070389378273     -0.16585360138344
  H   3.43823147520215     -2.31104499281684      0.15751666905411
  H   4.22658903043738      1.75002064680761      0.10405667718074
  H   2.15956238128561      2.83539344116018     -0.12923576826746
  H   0.01203658757070      3.38797197771749     -0.18169484517861
  H   -2.36824608825162      3.34666835786541     -0.08930962760905
  H   -4.35256019359945      1.58281815709889      0.01438369708001
