26
Coordinates from ORCA-job ./opt_b97-3c_parallel
  N   3.87483788833461      2.66037221674468     -0.63450645548713
  C   3.26243076503077      1.68201063120706     -0.47023332571622
  C   2.57591836114460      0.48904577081786     -0.26265697104432
  C   3.16498556307330     -0.71792825027615      0.23683503952030
  N   2.28009275568081     -1.70436391139954      0.43152018411168
  C   1.07039437330116     -1.22516767752499      0.06395822886597
  N   0.08195362230841     -2.06759413767597     -0.03426194374410
  C   -1.21204917690706     -1.98439253649393     -0.28967676532072
  C   -2.16249079978728     -0.99814536186699     -0.13578699595108
  C   -3.54055514489401     -1.29399477596265     -0.16048769623780
  N   -4.31524000497825     -0.22864179686268      0.06306521754425
  C   -3.47503059772326      0.82683170158001      0.20326631666939
  N   -3.98613505751283      2.07014695596571      0.38192165802366
  H   -3.43913236499856      2.74821915067158      0.88041838662519
  H   -4.97291598436694      2.09768258555712      0.57476964726878
  C   -2.10448250806039      0.45753364854217      0.06313199268771
  C   -1.10243973615203      1.37187292553953     -0.17378821046133
  C   0.26849990531869      1.28319409371763     -0.40876549224326
  C   1.19324229112518      0.26037574445124     -0.29017904619688
  H   0.72970051154784      2.24501265065498     -0.60349470466326
  H   -1.45002412123123      2.40050544020569     -0.20250789785469
  H   -3.97499121750023     -2.27465684352817     -0.29157561858046
  H   -1.62708944995507     -2.94161899473189     -0.60443468727212
  N   4.45603279762718     -0.88556961233089      0.50281934061913
  H   4.77079240431109     -1.76628379928384      0.86948613576573
  H   5.12537528645889     -0.15928776421953      0.32135997237026
