25
Coordinates from ORCA-job ./opt_b97-3c_parallel
  N   -5.43310962374593     -0.00169393957626     -0.95435914708419
  C   -4.31029205088177     -0.00118125070912     -0.65373289931302
  C   -2.95626443096179     -0.00056196099511     -0.27992960215752
  C   -2.16280486786503     -1.14195817218214     -0.05332415919921
  C   -0.86344801842063     -0.72486213374955      0.24434973215471
  C   0.16868774388218     -1.61795336184512      0.67268477535845
  N   1.43954844437651     -1.63702239058518      0.31206992633085
  C   2.26901568405205     -0.77856775597664     -0.18865086135990
  N   3.38727874892679     -1.16092545848135     -0.82702378581525
  C   3.96990876851978      0.00008214090067     -1.17715872938138
  N   3.38678876013275      1.16147163351111     -0.82909488456994
  C   2.26869205665589      0.77978851344778     -0.19003775999461
  N   1.43886634818305      1.63878056396895      0.30916587640326
  C   0.16801691515115      1.61981621143643      0.66980535061901
  N   -0.20715786696976      2.67639800004690      1.41657147942518
  H   -1.11972893824070      2.71688131282558      1.82919683418810
  H   0.44975961496147      3.41955743834734      1.58032075255574
  C   -0.86374298895426      0.72553386480812      0.24304464687008
  C   -2.16326142225849      1.14156605027269     -0.05541340829065
  H   -2.49399766798947      2.16193112803101     -0.15939643938309
  H   4.90242153388090     -0.00020989191762     -1.72547946817105
  N   -0.20602753062858     -2.67335033280830      1.42135355355756
  H   0.45120174134223     -3.41594157023197      1.58642511260059
  H   -1.11857613850565     -2.71347726888570      1.83406666039084
  H   -2.49313427824237     -2.16264160475239     -0.15544887533462
