27
Coordinates from ORCA-job ./opt_b97-3c_parallel
  N   4.63333676730585      1.72252405328968      0.26941912607228
  C   3.92462513142763      0.80676695838161      0.14622908646128
  C   3.03354060268526     -0.25723978219938     -0.00646902696323
  C   3.33973707917340     -1.61963876938378     -0.17666353853406
  N   2.26556696593792     -2.38686365931354     -0.33902974014558
  C   1.17514956075735     -1.56246450221952     -0.27239217959273
  C   -0.06311414422308     -2.14892192660198     -0.33359322416217
  C   -1.37420519282289     -1.67731105464692     -0.19980994578878
  C   -1.97838048226603     -0.45704281854478     -0.05860214217644
  C   -1.56947817496384      0.96073963066176     -0.16372486523741
  C   -2.77182908581785      1.65912642105353     -0.13423295160649
  N   -3.86785879722372      0.87059586724747      0.01257600942466
  C   -3.42086539373553     -0.37896225906049      0.06943365165228
  N   -4.28983701951332     -1.42750402805469      0.17012577125412
  H   -5.23398749986086     -1.13889559540311      0.36860271186155
  H   -3.99810927369228     -2.22248998528324      0.71131625895548
  H   -2.92198005192664      2.72785733114154     -0.15170214368583
  C   -0.30829389711323      1.59567040696065     -0.19841398680397
  N   -0.31608902469213      2.95473009302812     -0.30503070254293
  H   0.55020678725324      3.43544486104187     -0.46329029839819
  H   -1.13940063151007      3.43501970441818     -0.61179077172309
  C   1.00224223513910      1.08059425205269     -0.06098182283338
  C   1.61634458220195     -0.14854943832432     -0.08081478860556
  H   1.73249951527465      1.87833541547406      0.03632226011807
  H   -2.08457608938161     -2.49687057720526     -0.22105891984344
  H   0.01343568533258     -3.22067337502504     -0.46745757007509
  H   4.33293277255734     -2.04542557478591     -0.18208608758205
