31
Coordinates from ORCA-job ./opt_b97-3c_parallel
  N   -4.34405781099333     -3.46760755606845      0.26059051544999
  C   -3.88459844740408     -2.40186050811081      0.18198488346827
  C   -3.30713916936498     -1.13010736683875      0.08239820535785
  C   -4.00720847659023      0.09053616296062      0.12666982797951
  C   -3.11348781208550      1.13566086426702     -0.02960767200698
  C   -3.41313247655987      2.50189711290312     -0.04271591288654
  N   -3.60179052106263      3.65019280301366     -0.06654100104562
  C   -1.77551646337022      0.59611890309445     -0.15673530438455
  C   -1.92360131606317     -0.87559985191048     -0.09459163122341
  C   -1.01418393459378     -1.90516751270643     -0.25559805654912
  C   0.36110764921260     -1.97955349112846     -0.39224486375579
  C   1.43739273066708     -1.10193412330095     -0.32452985761451
  C   2.72772582670206     -1.66405784585207     -0.33266940827118
  C   3.66864687163519     -0.66296655828149     -0.11411840807226
  C   5.05648223981624     -0.80057591673739      0.02999061069908
  N   6.21113837010196     -0.84313681800735      0.16081649954154
  C   2.99145799935992      0.58061946507909     -0.00404363462686
  N   3.64653078307661      1.79564685443312      0.19910897162295
  H   3.31198568350907      2.30553741035163      1.00491288610929
  H   4.64842654827317      1.68449979998364      0.26910388006495
  C   1.60900706593085      0.36342932737595     -0.17081847148906
  C   0.69414339021050      1.41652458144678     -0.40257801788152
  N   1.21429759101065      2.62608109301150     -0.70897774901080
  H   2.21259884581736      2.74561855061517     -0.81316109620502
  H   0.61901754408918      3.42367144550741     -0.83497791287283
  C   -0.73120318793933      1.45423401784633     -0.33584729662083
  H   -1.08605181789405      2.47678623343420     -0.42005941340341
  H   2.94137434352958     -2.71571007675996     -0.41988142111460
  H   0.69717625615593     -3.00172280956534     -0.52577962691451
  H   -1.48855973015450     -2.87994302340229     -0.26549972040314
  H   -5.07170479451702      0.19057982794541      0.26078950195764
