27
Coordinates from ORCA-job ./opt_b97-3c_parallel
  N   -3.99944395628536     -2.43567256054733      0.06484594359667
  C   -3.46831112004887     -1.40164563943226      0.00742529434248
  C   -2.84591491777962     -0.15162240564970     -0.06071275240853
  C   -3.48930896864696      1.08944559668486     -0.45118729259955
  C   -2.59647541244271      2.10843237908656     -0.41249092918117
  C   -1.31674686372222      1.59402760867337      0.00252512816926
  N   -0.30252141393413      2.38262448524511      0.11825427328760
  C   1.01595993017824      2.20169817428369      0.28535963579392
  C   1.84749627602605      1.13251380937827      0.04463566379001
  C   3.23141249492106      1.39791302436682     -0.27816777644228
  C   3.82104010441297      0.24137548645087     -0.67497418400835
  C   2.86479768928387     -0.82920706890417     -0.52648804868203
  N   3.20205187781467     -2.13455976443992     -0.72038883490671
  H   2.45383098411686     -2.80304175492910     -0.79525387331264
  H   3.99927278217847     -2.32081287643782     -1.30260030644357
  C   1.64610501339459     -0.30213611506942     -0.08198497012827
  C   0.59328217955912     -1.08213097389863      0.51465512903413
  N   -0.68658125850286     -0.87482867592021      0.60148567057492
  C   -1.50849472204870      0.08960822690519      0.21627288958623
  N   0.98277931864377     -2.30645795665175      1.02472039084889
  H   0.24009509592654     -2.79330137254641      1.50115645086514
  H   1.88477087557896     -2.35784702069388      1.46912354822337
  H   4.83749073271095      0.11295439125346     -1.01592575775888
  H   3.66753985734237      2.38394113948613     -0.29235720245782
  H   1.53121086658623      3.13832918078116      0.47951922579936
  H   -2.77123911932086      3.15026764172056     -0.61903934515611
  H   -4.53194121904230      1.15693111420437     -0.71992048362606
