27
Coordinates from ORCA-job ./opt_b97-3c_parallel
  N   -3.46804572464668     -1.24116884657988     -0.69269993052752
  C   -2.71032216148057     -0.14696381242168     -0.39899442547968
  C   -3.27102375052257      1.18705249927336     -0.41591371793504
  C   -2.31734134857744      2.05363613245358     -0.00765602253051
  C   -1.07881412664711      1.32422246005365      0.21358507187055
  C   0.05263475128754      2.04871475883219      0.46970984095555
  C   1.43754941467140      1.76528437736978      0.42006296422629
  C   2.17114746795721      0.65420453673678      0.13947768475769
  C   1.80761677362835     -0.79300635963834     -0.05077776262503
  N   0.69391188662861     -1.49645390255036      0.24142432662945
  C   -0.56897515478816     -1.24892497531284      0.30655577529975
  N   -1.33591742311862     -2.37381691685436      0.66093785341765
  H   -0.73583916641066     -3.12697864473974      0.96176381576266
  H   -2.07814783888804     -2.18486576075218      1.31823899910086
  C   -1.37148290677282     -0.08491024071135     -0.00034571668687
  C   2.96318812549915     -1.42432471918864     -0.44122323783649
  C   4.03770202469548     -0.47387704065464     -0.50995212094395
  C   3.58513587663722      0.75224959017343     -0.12385193798627
  H   4.14769111718247      1.67103674788100     -0.07084813730445
  H   5.04811503958691     -0.70929534342576     -0.81074674256660
  H   3.04094014944943     -2.48464685322460     -0.62063615394767
  H   2.04309120427981      2.65935531621919      0.53597277204563
  H   -0.14646736619255      3.10362368942361      0.62546282929526
  H   -2.40059216078446      3.12631640366077      0.06499689317257
  H   -4.28751296194746      1.41872570024714     -0.69800103092152
  H   -2.97841924761731     -2.11206364796015     -0.82295860437905
  H   -4.27377644270921     -1.09793665271005     -1.27520232046302
