28
Coordinates from ORCA-job ./opt_b97-3c_parallel
  N   -1.62992927159523     -4.46368372829315     -0.38294395185047
  C   -1.73330760487458     -3.31245935114408     -0.25264288680767
  C   -1.78364519432628     -1.91990962606705     -0.11855160021708
  C   -2.88075046191392     -1.15791044543420      0.17305780913028
  C   -2.49575397991745      0.21308399486785      0.24810699562618
  C   -3.42195827260057      1.20162454316099      0.61557011897318
  N   -4.25110593090629      1.93058380489558      0.97793962642671
  C   -1.11916223180811      0.33483696217619      0.00698419212063
  C   -0.61037396927031     -1.04779093999339     -0.18352021909646
  C   0.59036407977177     -1.64557979343502     -0.39793394006625
  C   1.98084362284328     -1.30303983354342     -0.34688930832220
  C   2.59207329008010     -0.10570730751097      0.03178618021594
  C   2.10095755281001      1.27572601428308      0.06065697194892
  C   3.25851336667727      2.03786447573648      0.32097147388641
  N   4.35172419492012      1.28340583271984      0.51289625320008
  C   3.96710742924179      0.01190760083482      0.31574816075271
  H   4.68420133931359     -0.78654773188432      0.44189720256056
  H   3.29701145116656      3.11385631151411      0.40638902275889
  C   0.88887966916151      1.93040276599965     -0.10665419536710
  C   -0.45719920184273      1.57690900886920     -0.15754665468562
  C   -1.28344406015393      2.71203209164407     -0.40839817262177
  N   -1.87039016004194      3.67384738841664     -0.68788778719000
  H   1.02445831690312      3.00422963038479     -0.16229875413544
  N   2.77424245534464     -2.34832713522513     -0.66494500295399
  H   2.39659824918307     -3.26639615407901     -0.81213641838457
  H   3.76777933293638     -2.24413696480770     -0.74431657168392
  H   0.46598819909761     -2.70601146988410     -0.59336944842655
  H   -3.88132594379869     -1.51961409920291      0.34201157970863
