31
Coordinates from ORCA-job ./opt_b97-3c_parallel
  N   -2.80002796677252     -3.20664739464755     -0.09823614111840
  C   -2.09194426674637     -2.28363931655954     -0.10181000903329
  C   -1.11293478383774     -1.25859143419598     -0.05734786891810
  C   -1.64276213994477      0.03359271906459     -0.17584120258094
  N   -2.92697029691300      0.17841736483791     -0.51905602034655
  C   -3.19791963637048      1.48276223781287     -0.25245991918924
  N   -2.20371440935793      2.21754139477153      0.27312774691421
  C   -1.15088727906503      1.36640706416820      0.31860314964478
  C   0.02647004972137      1.79829546391592      0.88215524262190
  C   1.36352664500926      1.37448661153579      0.80370640440580
  N   2.23491613855148      2.16117570263792      1.49036496575566
  H   3.22458819574681      2.05528679911405      1.30438099369334
  H   1.92768293709396      3.06188628276841      1.81143400223496
  C   1.93093202265165      0.31289730349647      0.04426364931142
  C   3.27474386285089      0.33940384199585     -0.41128068368764
  C   3.61351200020831     -0.91087206165205     -0.92881124431931
  C   2.52557080611467     -1.75986996904306     -0.76568173770789
  C   1.44612906404000     -1.04381483767451     -0.20445850831436
  C   0.23083435748038     -1.73031819269639      0.05867086664776
  N   0.36181062807164     -3.05369230387237      0.30967972888811
  H   -0.42662382343894     -3.67692782103500      0.27695015717091
  H   1.27297864287916     -3.43876849165999      0.46221070481267
  H   2.46600394138826     -2.76347261562732     -1.15484413019634
  H   4.54308907952821     -1.15456482311323     -1.42164082005819
  N   4.14801286743508      1.45229401652979     -0.34968122431595
  H   3.80729663795386      2.23606156642344     -0.89216369407604
  H   5.06329645302125      1.20754826622346     -0.69715365724733
  H   -0.10562704225191      2.75494297043496      1.37613216776114
  N   -4.39781305038461      2.00115973898691     -0.53149218229559
  H   -5.13677725540821      1.38888345505915     -0.82266049593951
  H   -4.61590042865312      2.93055777850019     -0.22530536851851
