28
Coordinates from ORCA-job ./opt_b97-3c_parallel
  N   -5.49181915056433     -0.12059803570445      0.04695315772787
  C   -4.33071718354283     -0.15909303229306      0.11463176147927
  C   -2.93295969288785     -0.13891769323820      0.19426899808672
  C   -2.06629161016309     -1.25326964315612      0.17196046170706
  C   -0.74347066784859     -0.82237799017468      0.18486974032171
  C   -0.78092592116161      0.66381794640884      0.27509205943669
  C   0.15627622465554      1.65059997104005      0.51936986670310
  C   1.54015154353713      1.76122110988540      0.51859735485690
  C   2.57313652218420      0.91840799571808      0.15842455936481
  N   3.82114419235239      1.43049296796756      0.10928265745612
  C   4.62588059265408      0.43525906344659     -0.33457320069012
  C   3.95874608599798     -0.75487634524088     -0.56559624254691
  C   2.60321784447382     -0.52747643047232     -0.24893286125812
  C   1.69145265916573     -1.55677319214396     -0.22052684285607
  C   0.32551593689821     -1.74013880620570      0.09239123869792
  N   -0.01535875067635     -3.06998445295503      0.18695034965587
  H   -0.83910602265816     -3.30498782617269      0.70902785192684
  H   0.73402909700400     -3.72897345524481      0.29509582801160
  H   2.16699221516249     -2.50332450231650     -0.46317145901571
  H   4.38233981094481     -1.69180460318010     -0.88981056017176
  H   5.68176720862141      0.62239315417202     -0.47294681766589
  H   1.91041960004546      2.74451429847926      0.78159920541125
  H   -0.30919478312569      2.59906600530022      0.76617588429439
  C   -2.16229700473816      1.03108242217396      0.25543957607209
  N   -2.66769636698641      2.30494049961050      0.35280285523241
  H   -2.18738859284572      3.01249737261418     -0.17718599085042
  H   -3.66576728891314      2.36665107089012      0.22837874629455
  H   -2.42398494468457     -2.25938028441047      0.03860194401801
