29
Coordinates from ORCA-job ./opt_b97-3c_parallel
  N   4.87742007381766      0.55137592011380      0.49997031301974
  C   3.59094231602611      0.32644588680329      0.22003530465207
  N   3.00598530440952     -0.85119460125791      0.53842186964955
  C   1.74228248680144     -0.69953745113923      0.11100181212395
  N   0.94315937073926     -1.72240555021347      0.00318687647709
  C   -0.34997676739271     -1.87994721473733     -0.20102572932383
  N   -0.66973659504577     -3.12326614303262     -0.65682645533796
  H   0.09033044195303     -3.75325491632074     -0.84393679350812
  H   -1.54665498447772     -3.27203054901965     -1.11794826160100
  C   -1.44250924340922     -1.04173455530532      0.15134756502263
  C   -2.63329493108404     -1.58889458669892      0.65474088417858
  C   -3.52630843631315     -0.55623129375164      0.93756017249143
  C   -2.93658162603140      0.64952854178646      0.55838104553957
  N   -3.56137663964037      1.92090789586861      0.63955569254658
  H   -4.52077157877757      1.82659366061729      0.93885567255591
  H   -3.09092430248073      2.53073855486568      1.29691285116097
  C   -1.62817900395376      0.40116879455105      0.06006121318383
  C   -0.86284453283386      1.36772810377930     -0.65315830605881
  N   -1.55312393636701      2.42164488096946     -1.16765695671560
  H   -2.52373393883620      2.53683087235577     -0.89966127727956
  H   -1.05025009891822      3.24428878608617     -1.44662374992523
  C   0.52865628466552      1.44513364983150     -0.86917082556664
  C   1.60570357746742      0.71832123607448     -0.42060481857574
  N   2.83680972454799      1.26817508744568     -0.39268725580151
  H   0.84741265466592      2.37364946583214     -1.33182136038152
  H   -4.49483849508936     -0.65934417642326      1.40495639418008
  H   -2.77594319829107     -2.63079635411542      0.89258294290420
  H   5.29721692163447      1.42538988148020      0.24646466826217
  H   5.41234752191394     -0.14872385504705      0.97741899612757
