32
Coordinates from ORCA-job ./opt_b97-3c_parallel
  N   -2.65308966143131     -4.24570548200962     -0.07930361067848
  C   -2.36840670198941     -3.11655829802501     -0.03942615247807
  C   -2.07009990443832     -1.75560983824053      0.00694556054143
  C   -2.99431012341102     -0.74012242978625     -0.24870893899816
  C   -2.31418854845947      0.52638529512122     -0.14540788694297
  C   -2.98887142350978      1.71899270525447     -0.42102124451187
  N   -3.65236765875814      2.62818151034822     -0.71732092858358
  C   -0.96961186449545      0.31068248587301      0.16326380099933
  C   -0.78253615584358     -1.16453570699318      0.22173899234717
  C   0.30533177325391     -1.96384151900886      0.47418514037154
  C   1.68978642633566     -1.76982910729739      0.40089594218183
  C   2.48270353139779     -0.70790774549371      0.06824335924311
  C   2.27793385104807      0.72824651253558     -0.07360855039116
  C   3.49231909561581      1.20281651228245     -0.55948471858995
  N   4.42950357073290      0.23738185029917     -0.76106648675204
  C   3.87071069383599     -0.89598778685839     -0.35573923191791
  N   4.56383445603936     -2.05969194850570     -0.37826776140690
  H   4.06898417121961     -2.93121858415937     -0.41944960083085
  H   5.42174034100241     -2.03245438053527     -0.90317542873017
  H   3.72836969125350      2.22375196832290     -0.82112555601056
  C   1.26736207180433      1.59653725526937      0.43714937855378
  N   1.70459123118317      2.83645588422026      0.75052439143710
  H   1.06737275551794      3.53914863102364      1.08633549823605
  H   2.68280611860323      2.98995765886222      0.90509116750551
  C   -0.12646863688759      1.37349591891662      0.59791601264047
  C   -0.81085677043097      2.44408753000894      1.22109331564473
  N   -1.28698749242167      3.33830225226861      1.79523045565436
  H   2.22879357485393     -2.70093754652458      0.54215750475893
  H   0.03662929926128     -3.00319107248588      0.62477033783652
  N   -4.27829477105455     -0.87395789997181     -0.56740037698212
  H   -4.85047963503136     -0.06592146671135     -0.74273310934047
  H   -4.70052435321672     -1.78302615956296     -0.63805683137090
