26
Coordinates from ORCA-job ./opt_b97-3c_parallel
  N   5.66511662477261      0.35040830369777     -0.08621055167092
  C   4.50507409943512      0.31122233304022     -0.13624731982282
  C   3.10158159310097      0.25297237864250     -0.19972394324602
  C   2.24367548338392      1.32083900753226     -0.44568085459192
  C   0.90935483105615      0.86953721603395     -0.37101915102855
  C   -0.10120589244160      1.81503440991335     -0.52499561227405
  C   -1.47515802479431      1.85565429395011     -0.38245908645559
  C   -2.44603705518421      0.92864546621092     -0.04180717851733
  N   -3.71354698734281      1.36483789344184      0.08185212669853
  C   -4.46845896390602      0.27955275137365      0.38647843643761
  C   -3.74120691784021     -0.89420484779150      0.44779164489893
  C   -2.39737041088102     -0.55411655571101      0.18611203638653
  C   -1.42193533785322     -1.52163890506933      0.10942616980292
  C   -0.02491072635250     -1.59493903052439     -0.06392600816127
  N   0.43906110162287     -2.88631167218488     -0.09716105041744
  H   -0.23116978377900     -3.62775285119890     -0.18694143444818
  H   1.31920726791644     -3.06386151252169     -0.54436380224342
  C   0.97275932677945     -0.58903958125752     -0.10852980232450
  C   2.32661159182861     -0.91220560554518     -0.00638083539059
  H   2.75247098702651     -1.86700623570909      0.24965690322934
  H   -1.85447830846294     -2.51149716119934      0.22828213701528
  H   -4.11102413658770     -1.88474389610277      0.65845973117751
  H   -5.53030330645595      0.39492561412548      0.55204943856085
  H   -1.91106926629894      2.83600280188027     -0.53160549840450
  H   0.30786279459307      2.78943009163598     -0.76953506622385
  H   2.54077663586542      2.34099306283790     -0.62167988508650
