26
Coordinates from ORCA-job ./opt_b97-3c_parallel
  N   -1.40357384724402     -4.27556899845181     -0.34150099639180
  C   -1.09728692727260     -3.16164160005787     -0.23727840716765
  C   -0.90956603200538     -1.74572490113101     -0.12523497842857
  C   -2.15052641805238     -1.07261556719805     -0.03944807788717
  C   -2.55921326027082      0.22812497655378      0.05179793112886
  C   -1.84657427391125      1.54235632550843      0.00924140234823
  C   -0.52009459253722      1.91720374885944     -0.10517751220313
  C   0.73101088063634      1.28958067370126     -0.13535050540096
  C   1.75549813067781      2.26058031359603     -0.35788345190247
  N   2.49600423469471      3.12171381465268     -0.59654777446378
  C   1.15377040441491     -0.05016672678068      0.00499308635882
  C   0.42464610463163     -1.35291799935651     -0.05681121379265
  N   1.31825265226365     -2.38514216495728     -0.01762156059769
  C   2.52109319222298     -1.85684172217598      0.10991188305506
  C   2.50165398188756     -0.43786523359133      0.12576792786442
  C   3.66561424298550      0.31699183616824      0.33047245936229
  N   4.68736308894639      0.82838106294877      0.54156327995619
  H   3.40299339513479     -2.47265560107512      0.20561226191600
  H   -0.42279518066830      2.99333872692266     -0.18196919891284
  C   -2.84341050766412      2.51889739661276      0.07959017304598
  C   -4.10335958659273      1.90491282144924      0.17957209025103
  C   -3.93872975069056      0.53117635694153      0.15526444153190
  H   -4.72095313052533     -0.20965658544835      0.19753578636095
  H   -5.04568993135917      2.42474070366686      0.25516604778030
  H   -2.65860238662253      3.58136540471062      0.06185359185115
  H   -2.97982170117989     -1.76935487026839     -0.03318357116248
