31
Coordinates from ORCA-job ./opt_b97-3c_parallel
  N   -3.71694660245949     -2.20381451457792     -0.54897739602339
  C   -2.77326340448725     -1.56254356267335     -0.31311893483655
  C   -1.59578522666743     -0.82840565662729     -0.04126070584895
  C   -1.83998600069132      0.54462670411554      0.29438897258237
  C   -1.07221681183019      1.75695305588647     -0.11893564284322
  C   0.15445457433248      1.95414581941938     -0.65945983804559
  C   1.37505246430990      1.20611764282139     -0.73675704620610
  N   2.34525838643939      1.84710971661130     -1.43972144733618
  H   2.22593308180639      2.81976322481081     -1.66090602618325
  H   3.29996358019386      1.51531992343605     -1.33034228884547
  C   1.71738090889631      0.01603022096965     -0.07842044810670
  C   3.07234064895595     -0.28922031929303      0.29230865210363
  C   3.11150871289059     -1.54677396991890      0.85464506144169
  C   1.81756309174336     -2.09879110046052      0.80206138462129
  C   0.92482585877188     -1.17137863683016      0.26880864081853
  C   -0.41540494068112     -1.58158436203320     -0.04769584849628
  N   -0.53698490801650     -2.93216258747986     -0.25069960781175
  H   -1.43964123842682     -3.30585554851450     -0.49155891448439
  H   0.25073940496871     -3.40432063185653     -0.65430884249636
  H   1.54184681186989     -3.07154920967737      1.17401923311734
  H   3.98130503020638     -2.01179710777369      1.29503317012875
  N   4.18133410375824      0.58976550491098      0.13761344793800
  H   5.04293110236496      0.09393336846726      0.31590725258639
  H   4.13910037514125      1.36203899427177      0.79346053208989
  H   0.28762639687666      2.97095578120759     -1.01998901320842
  C   -1.94506915827903      2.88882982602236      0.10633173980662
  C   -3.09776953617934      2.43319369612528      0.66507351591326
  C   -3.05321310372961      0.99962707773667      0.74539424548855
  H   -3.87177272291804      0.37161212923302      1.05793854858149
  H   -3.92113871826243      3.04150285314497      1.00885311963982
  H   -1.64983687339671      3.91500533542707     -0.04481220928488
