29
Coordinates from ORCA-job ./opt_b97-3c_parallel
  N   -5.82004236894614     -0.94646348653737      0.90225644241734
  C   -4.72352597962952     -0.71551711877308      0.59349599436460
  C   -3.40169178411743     -0.43255792812736      0.21074843589985
  C   -2.84312151980939      0.85678354693727      0.06635854076370
  C   -1.49354793311299      0.72318089271165     -0.24601476815964
  C   -0.66855388296200      1.86949137148206     -0.49128097660533
  N   0.54241065799197      2.12148842542502     -0.05148860152359
  C   1.58353808612535      1.41251159295966      0.31164173101250
  C   2.67334759313092      1.97393904675458      0.98827224257286
  C   3.73885143222624      1.08122127101720      0.95094013413262
  C   3.38163147222059     -0.08569947407216      0.25488586922589
  C   4.17230577934932     -1.21662431708163      0.04132442753491
  N   4.79077186141958     -2.18140243650695     -0.16939297481996
  C   2.00238682627279      0.01332119354000     -0.10036550875951
  C   1.32344911162435     -1.04032985414203     -0.63672204126776
  C   -0.04392343992803     -1.38814349965772     -0.77802637503058
  N   -0.23649725352084     -2.62049493674237     -1.30871467935551
  H   -1.15856065113373     -2.94722995442185     -1.52506438381080
  H   0.52881064686674     -3.25250136660977     -1.45553824159806
  C   -1.20237579257189     -0.70207208456498     -0.33995656919575
  C   -2.40873755831286     -1.37679310383230     -0.07067513091447
  H   -2.54255501488614     -2.44243956629043      0.01367453099919
  H   1.98610412916016     -1.85805017126745     -0.90667444494862
  H   4.71333256024848      1.24922610688318      1.38321588576802
  H   2.68695210241950      2.97605064217961      1.38087100376003
  N   -1.27438561449620      2.92230787156766     -1.09158262936177
  H   -2.11240550889839      2.79068538772234     -1.62491310620079
  H   -0.75921203780648      3.77941356517805     -1.18948688441125
  H   -3.36255178442496      1.78362099297032      0.24301851661156
