29
Coordinates from ORCA-job ./opt_b97-3c_parallel
  N   5.68059953008561      0.04264213598995      0.29016098920706
  C   4.55109643500372      0.21082625298911      0.06989638249443
  C   3.17458847731645      0.33053565708164     -0.16480786327996
  C   2.48298684985412      1.42192111337113     -0.64820322205905
  C   1.08909952628709      1.14184542380256     -0.59956624963115
  C   0.22205439304297      2.18610572323364     -0.86004594006598
  C   -1.12368722843084      2.42143206471806     -0.60009676012049
  C   -2.13520388330708      1.67310909598300     -0.03812410430226
  C   -3.37782205712748      2.23639037420421      0.31395269917365
  C   -4.16850759696622      1.20189293977803      0.76987542242856
  N   -3.55601201447776     -0.01123085351976      0.69332635812972
  C   -2.31675892682069      0.20419879877304      0.23593647668183
  C   -1.55625908681872     -0.93748280544888     -0.08218085680404
  C   -2.33222487374348     -2.13040572341688     -0.09655477308133
  N   -2.82443840930719     -3.18113062291432     -0.17060033969576
  C   -0.16663392683321     -1.15646193674626     -0.31148275041941
  N   0.17613142581896     -2.41260495796491     -0.65934351408985
  H   -0.50798860656703     -3.15119467965636     -0.67261356563492
  H   1.14365765859926     -2.65732745980471     -0.78699799329227
  C   0.93901660985726     -0.25116161720116     -0.15622609408977
  C   2.22993981027721     -0.71049109983895      0.13080675641808
  N   2.62082755130383     -1.96336781421306      0.56696672443525
  H   2.03707473086541     -2.37126110550752      1.28029754794717
  H   3.59597926348398     -2.02106436630432      0.81951470361995
  H   -5.17140639395722      1.26823921974891      1.16613248443198
  H   -3.62838545965217      3.28300661919179      0.25931958430649
  H   -1.42594315819066      3.43848964479644     -0.82534651950869
  H   0.73168057896835      3.05765416438095     -1.25539360619916
  H   2.90942419922391      2.37534649459952     -0.90974689579509
