34
Coordinates from ORCA-job ./opt_b97-3c_parallel
  N   -5.76468455260579     -0.78925360654084      1.24172405765740
  C   -4.68149667142883     -0.71980128577466      0.82113769002244
  C   -3.38602797358091     -0.55230743406298      0.31918839371828
  C   -2.49527844327987     -1.53832069446394     -0.10260777477136
  C   -1.25187328205689     -0.93402047243282     -0.38709013349058
  C   -1.40147959095324      0.49560617977377     -0.18749057832159
  C   -0.58199485695934      1.56001609336527     -0.70476661975438
  N   -1.24514684557736      2.55729192558877     -1.32759261183987
  H   -2.24977895406780      2.53970134000466     -1.36165767287261
  H   -0.77961667138276      3.41427469277456     -1.57457012224711
  C   0.81126505377736      1.68373015180908     -0.57815285243924
  C   1.36734659535599      2.87139585207648     -1.10165739778217
  N   1.77861500276413      3.86890843735161     -1.54012962210736
  C   1.71296400346289      0.89509893377884      0.19823075569113
  C   2.85040441991659      1.40551414685683      0.76942504241392
  C   3.57327432300472      0.29585960686918      1.30318336142408
  N   2.98182686929510     -0.88111640191043      1.04996308189769
  C   1.85050251428337     -0.59655150039725      0.37081919926531
  C   1.18891041706926     -1.64579217750119     -0.25926038798903
  C   1.93324707499286     -2.85178201006301     -0.34028464466909
  N   2.44485087261388     -3.88271178278410     -0.50342416387326
  C   -0.15685944573590     -1.75303023211055     -0.74822908392029
  N   -0.44725678419494     -2.85468513168507     -1.46775691056276
  H   -1.37849240974539     -2.98158625824834     -1.81726516389985
  H   0.19082986328714     -3.63197093301655     -1.51870979635267
  N   4.70361839699413      0.35127957469553      2.00720926118897
  H   5.12477586426939     -0.50471102375181      2.32340091322043
  H   5.17545697490497      1.21797247602695      2.18218475629119
  H   3.13596323572174      2.44339946457190      0.81024505358366
  C   -2.72605002611139      0.70638322803212      0.23132333488097
  N   -3.35892167668552      1.92036757619399      0.45662447747288
  H   -4.27350225267646      1.81938739979898      0.87116403876075
  H   -2.80911857647268      2.59221250845868      0.96960738375247
  H   -2.67947417709883     -2.59722771128354     -0.03410853334869
