31
Coordinates from ORCA-job ./opt_b97-3c_parallel
  N   -2.21914961235994     -3.29892200144273     -1.30708088933205
  C   -1.51378018938346     -2.47056218589392     -0.90140980346128
  C   -0.56558998727538     -1.48549052186856     -0.49712294415283
  C   0.73990322021768     -2.00207251028678     -0.45791856823792
  C   1.97699844447039     -1.51766468744188     -0.10061044494055
  C   2.55412814434779     -0.18352229582829      0.08319086652005
  C   2.12953262066592      1.07697462183219     -0.42197469628552
  N   3.14044435108878      1.93714834516667     -0.70496762422955
  H   2.94935309336966      2.86316839918270     -1.04671975909764
  H   4.05018789425394      1.56205791150405     -0.89496607154391
  C   0.81279959334130      1.58464258279076     -0.58853008450693
  C   0.77441403974827      2.90530998081177     -1.10384871223722
  N   0.79005300840354      3.98348730666330     -1.54167837876413
  C   -0.46329878419505      1.12892940474694     -0.15612030241436
  C   -1.47316134816843      2.04115538029608      0.11178467362110
  C   -2.66517128859091      1.35176091343828      0.38929522663574
  N   -3.82829847544584      1.87651028432412      0.76771467366279
  H   -4.61663366338415      1.28167779927631      0.96242403392590
  H   -3.94947055899626      2.86761696893807      0.86347907073672
  C   -2.43415158374089     -0.04983672289652      0.23271294708299
  C   -3.44539524698290     -0.96569756553285      0.53048721442683
  N   -4.37964854635856     -1.58566564690017      0.84512788564659
  C   -1.08520543589881     -0.24047213576402     -0.11048012059276
  H   -1.35751750222467      3.11125663368871      0.13314425824917
  C   3.84240056588799     -0.38183721154105      0.58192806723288
  C   4.09739294556470     -1.76569111681315      0.71168597808239
  C   3.00068327196210     -2.45296707882208      0.24804104106134
  H   2.86893701721962     -3.52320112655795      0.22520554907602
  H   4.99879082019588     -2.19853168582762      1.11624844790755
  H   4.53302055315484      0.39878768594711      0.86027746626158
  H   0.75453323648767     -3.06850864810285     -0.64984484504499
