29
Coordinates from ORCA-job ./opt_b97-3c_parallel
  N   -0.30909564882681     -4.35333930668992     -0.53013669373154
  C   -0.27500279729437     -3.20266548892651     -0.37155908804659
  C   -0.22524385553887     -1.79445820601592     -0.17719802766861
  C   1.08466526663662     -1.26179139463531     -0.10214980424050
  C   1.51514201476718      0.16940680143814      0.10323956885832
  N   0.96945698313399      1.29075910339102     -0.16393221312562
  C   -0.20923730981499      1.73957079592030     -0.63143958508501
  N   -0.05498987477391      2.77717417955323     -1.48551461546561
  H   -0.83229910541303      3.14389698312290     -1.99978566785305
  H   0.84348941731534      3.22006705915550     -1.56166836713292
  C   -1.47910095149175      1.37154457737863     -0.19483490280509
  C   -2.56034337895942      2.26748411268396     -0.11499244352122
  C   -3.67092724306874      1.61063112419133      0.39911307669465
  C   -3.33441717950334      0.26427318979754      0.61922397389407
  N   -4.19499157744455     -0.71243341541485      1.04969837563056
  H   -5.08988912902794     -0.39270244630911      1.37683923015843
  H   -3.80993374212088     -1.43112897068122      1.63785144862709
  C   -1.97139432059785      0.05818323307332      0.24848497886537
  C   -1.47549264739228     -1.22449972027675      0.08705608287203
  H   -2.24499794781038     -1.98403188499336      0.17917227959010
  H   -4.62888915652895      2.05956915422729      0.61310672006886
  H   -2.50592790103088      3.32496648069337     -0.32061952029747
  C   2.92386390134191      0.11922778730886      0.49535008402673
  C   3.70281763746269      1.25101735064615      0.74608712060060
  N   4.33470351899565      2.20540494868446      0.95544029055005
  C   3.33046895019929     -1.18942311445806      0.37248897511737
  C   2.23587435664282     -2.01628825908757      0.00147904683149
  H   2.28418256764187     -3.08774395811713     -0.09872548608011
  H   4.33985600500166     -1.53753589896045      0.52722785256811
