28
Coordinates from ORCA-job ./opt_b97-3c_parallel
  N   6.26605306910182      0.15332394188549      0.02827734031946
  C   5.12108928415145     -0.04388025484923     -0.02636861100015
  C   3.72977139132035     -0.19465676962326     -0.09057453678200
  C   2.99364514226727     -1.36753019030007     -0.03657468761548
  C   1.61443121369943     -1.06484398305533     -0.10213319754897
  C   1.50116681268572      0.40087767155009     -0.23236657512871
  C   0.42217556995120      1.24721983343077     -0.49989108682746
  N   -0.87804035167661      1.18716824731485     -0.38329837950871
  C   -1.74958385161464      0.23045934400515     -0.10207731781024
  C   -1.72708968560996     -1.28495890018755     -0.09665309990170
  N   -2.98807863626079     -1.76548213607906      0.08580079981642
  C   -3.77948734542417     -0.71089481219434      0.27827422269370
  N   -5.08396776708904     -0.83290962647962      0.51056153511287
  H   -5.66542457149231     -0.02589050221274      0.64811188316614
  H   -5.50163640789291     -1.74653490425465      0.51239717484167
  C   -3.07446747918847      0.54238187709663      0.19577090881224
  C   -3.67155645764767      1.79871985629414      0.29254508745540
  N   -4.25178296916723      2.80290142438962      0.39168553463965
  C   -0.69440516277484     -2.19400715369691     -0.12829547157671
  C   0.69970057414377     -2.09455611407484     -0.11755314917535
  H   1.17665220406111     -3.06807834200961     -0.07623541893597
  H   -1.06252620984495     -3.21116946894779     -0.07690979131069
  H   0.73161407798849      2.22571708874602     -0.86956288193623
  C   2.81933730146530      0.90647151748430     -0.21975205386262
  N   3.23021014979050      2.19058048273832     -0.34079402113376
  H   2.59795755715456      2.93368965876298     -0.10763105389954
  H   4.19933955089486      2.39033705948683     -0.16135518451737
  H   3.40458536570912     -2.35957979631966      0.05264188761247
