24
Coordinates from ORCA-job ./opt_b97-3c_parallel
  N   1.49042005140109      3.67839593440426      0.05077939106913
  C   0.95106962819593      2.64970119318846      0.04469696646843
  C   0.31028552464915      1.37711395948630      0.03057134435477
  C   -1.06524172346468      1.45001250869838      0.21114805957296
  C   -2.10651239431767      0.53117628909673      0.22591699696018
  C   -2.21938784859500     -0.87726799360016     -0.15080381147554
  C   -1.30883031223879     -1.85741643312514     -0.49349392401476
  N   -0.01396067579194     -2.01300362034388     -0.30365513616662
  C   1.00338167174931     -1.24880972840492     -0.02473747043490
  N   2.18350954646337     -1.85719542838432      0.22094169683793
  C   3.10434426310926     -0.88554974460859      0.29092872683770
  N   4.37964595312180     -1.17893615226410      0.52562818422057
  H   4.64391342108596     -2.14013315840142      0.65694981922479
  H   5.09289089387114     -0.47377402101159      0.53068741081959
  C   2.56985640178709      0.42794071542944      0.10484654437719
  C   1.21702649062217      0.28029140427097     -0.02897609358446
  H   3.11776259004831      1.35376039902287      0.16291375204677
  H   -1.76302351322116     -2.73801169963112     -0.94655658932344
  C   -3.61395524548939     -1.12228942195673     -0.17182366478338
  N   -4.33228371911629     -0.04919815222623      0.17440997626545
  C   -3.43814138628539      0.94239358199858      0.39126609782518
  H   -3.76747522071222      1.94281255917044      0.63371894051780
  H   -4.08826437901928     -2.06546448663215     -0.40288164678400
  H   -1.40917804795245      2.46578657252375      0.37356066266852
