35
Coordinates from ORCA-job ./opt_b97-3c_parallel
  N   -4.34458932720023     -2.47021921687240      1.50235714634695
  C   -3.80013105116783     -1.51536262733383      1.11137553712183
  C   -3.22395039628906     -0.33099883614018      0.66551516947201
  C   -3.94563092147109      0.87814920941928      0.45589259161599
  C   -3.12731488609704      1.82444724147557     -0.19162443878313
  C   -1.84915664957109      1.28888596405102     -0.34268253306469
  C   -1.94646606358252     -0.16235177672712      0.07660512878451
  N   -1.17538579020617     -1.15389495627326     -0.22316699631287
  C   0.03643001881409     -1.32339632483164     -0.73562435877092
  N   0.13685191998226     -2.50489499441421     -1.45696406387099
  H   -0.75015021540524     -2.96406289069579     -1.59193022718990
  H   0.71938485874942     -2.47164247527275     -2.27780187632336
  C   1.21757588488405     -0.62883550230033     -0.46258372299647
  C   2.45730457446793     -1.30156133028370     -0.27721571723658
  C   3.38527912845168     -0.37598451582466      0.24458470950185
  C   4.68413771883591     -0.66807685407999      0.65766658501183
  N   5.76929932966403     -0.90389045248633      1.01305218373597
  C   2.76048929441926      0.89125497873945      0.33926806306760
  N   3.45312810226555      2.01613084991823      0.73505163660638
  H   2.90387917721053      2.70963050933277      1.21703629752241
  H   4.31770926363784      1.81469795570209      1.21346032709317
  C   1.42400626871395      0.78939280069725     -0.10595488205890
  C   0.63946989062305      1.90885342275051     -0.47723641569162
  N   1.31218834119793      3.11236034552342     -0.57314423952198
  H   0.79604828700712      3.88806669153503     -0.94688739438456
  H   2.28142936436412      3.08676026422916     -0.84470453719791
  C   -0.74370885115542      2.03350390976436     -0.70958482840073
  H   -1.02201442414693      3.03048679967942     -1.04048571558621
  N   2.75026913241881     -2.61795033875389     -0.48477592010487
  H   3.51450744094284     -2.98214426280782      0.06168938900510
  H   1.95490682914479     -3.23550628468160     -0.55372536991947
  H   -3.39277467952037      2.85597831105724     -0.36284519198446
  N   -5.21029712879693      1.06480639325400      0.85396907637457
  H   -5.73460606162273      1.85970639760443      0.53962121083955
  H   -5.72519195606263      0.29939862564560      1.25395001609889
