28
Coordinates from ORCA-job ./opt_b97-3c_parallel
  N   -3.03035952340563     -3.08181475413078      1.04087514698473
  C   -2.41313751517180     -2.14625554770786      0.73565650148098
  C   -1.54893562385465     -1.08083914073297      0.35694201124643
  C   -2.15540043226157      0.17111909660911      0.21953573437654
  N   -3.47308461569527      0.30088721125980      0.41153079155951
  C   -3.74724074454982      1.57145831083030      0.01251843701965
  N   -2.74075084199812      2.30787163937788     -0.42802190274108
  C   -1.63953146048041      1.48728469838510     -0.28826282016964
  C   -0.42562958932772      2.04156475018878     -0.55764757648607
  C   0.95067577158041      1.69035693016227     -0.37151849377760
  N   1.77249867102691      2.75776100028560     -0.57420070994182
  H   2.75468434615202      2.60112500414495     -0.74337356463007
  H   1.37771550756662      3.59912871437664     -0.95167358167127
  C   1.52996377720684      0.46918662681966     -0.02385344670620
  C   0.98826164290523     -0.91311980371777     -0.09708945445256
  C   2.17342629909091     -1.73188916955502     -0.14555658035868
  N   3.29543786665797     -1.02044725753554      0.02690630471539
  C   2.92390217594580      0.26899195563163      0.12034341247868
  N   3.90790462171853      1.22736504802157      0.28326704045516
  H   3.71547677670582      1.90545170004091      1.00604530045059
  H   4.80975292218678      0.79522720368651      0.42122496355257
  N   2.25620294202340     -3.06645600886612     -0.33237685536116
  H   3.11292646057678     -3.50767123038466     -0.04768246405129
  H   1.43257440517257     -3.63713830970993     -0.29653686429580
  C   -0.22722446223744     -1.50380820099565      0.10725400294266
  H   -0.17236789167262     -2.58571413047164      0.13847563586822
  H   -0.55708643974218      3.05676589876078     -0.91549443905809
  H   -4.75633969920398      1.95700247459861      0.05737566596802
