24
Coordinates from ORCA-job ./opt_b97-3c_parallel
  N   -3.45904282856930     -1.13119964545551     -0.76054566061418
  C   -2.63187770790265     -0.10415189144634     -0.44266940663090
  N   -3.18953848763340      1.16841813392257     -0.39888012532681
  C   -2.24186392512095      1.95163690793540      0.05431976993245
  C   -0.99298845464170      1.25750638831434      0.25155146456958
  C   0.14348209050445      1.96287967647758      0.57659904476354
  N   1.42938332597271      1.72441793613633      0.31068873784612
  C   2.11436711680521      0.67886783732543      0.01429666729430
  N   3.39475536900516      0.85164151965497     -0.48134707537504
  C   3.84486053996082     -0.36167778090479     -0.73091825088539
  C   2.93705173411914     -1.41891323810839     -0.42377301726051
  C   1.79422379671171     -0.83711239335109      0.05425711741621
  N   0.71672621937191     -1.52644367743007      0.43218247129152
  C   -0.55695656003612     -1.28511323742334      0.37989988043137
  N   -1.34376932961849     -2.34503978466720      0.78005424550857
  H   -0.82435034815700     -3.09871545114672      1.19996057567665
  H   -2.22813425210588     -2.13462991982841      1.21243343908934
  C   -1.28281209498131     -0.12039309234066     -0.07136702031425
  H   3.10370106861555     -2.47635676529393     -0.54473739700708
  H   4.84440201103375     -0.49458043692681     -1.12703977689545
  H   -0.02347410437950      2.96237467212951      0.96901234296319
  H   -2.39278189150915      3.01550295087027      0.17298097544130
  H   -3.05007623021632     -1.99049407481474     -1.08290660469543
  H   -4.32877398572866     -0.86215064372839     -1.18804038381899
