29
Coordinates from ORCA-job ./opt_b97-3c_parallel
  N   -6.70488557205731      0.00170429893082     -0.76611325000052
  C   -5.56061609281682      0.00142756514902     -0.57075949318850
  C   -4.17374798891457      0.00111190197193     -0.33503325143422
  C   -3.37227526690413      1.14545564494997     -0.18828114599742
  C   -2.04440179225376      0.74690656292149      0.00889067731091
  C   -2.04487959871206     -0.74610837152102      0.00902206150012
  C   -1.06807894755937     -1.68505329900518      0.25696123453629
  C   0.33427325000491     -1.69099408947688      0.36875969001762
  C   0.78264718708180     -2.97154904489669      0.81661656906988
  N   1.02954051361175     -4.00513209579118      1.28337394922571
  C   1.33134554215474     -0.74856923112514      0.06479875362753
  C   2.66786204933735     -1.14293333423836     -0.21039947864711
  C   3.17367478453718     -2.43119524904179     -0.45336416601209
  N   3.66486631620065     -3.44957921734875     -0.71823461608141
  C   3.44992151105312     -0.00068682010684     -0.40294955045337
  C   2.66876384602889      1.14170578149794     -0.20872474954491
  C   3.17531142337236      2.42999969151980     -0.45007572973465
  N   3.66700750345563      3.44842961674504     -0.71381541700125
  C   1.33183901087392      0.74777727865686      0.06575201990771
  C   0.33518791281752      1.69039968392285      0.36985349161595
  C   0.78380504127404      2.97052462179575      0.81870731239597
  N   1.03083847099845      4.00354033977249      1.28664206431616
  C   -1.06723594993972      1.68523923647256      0.25712668731826
  H   -1.47794501277799      2.68158624837913      0.36727502593254
  H   4.48561418887586     -0.00093241554053     -0.69916181580713
  H   -1.47933818845300     -2.68113259316036      0.36745354527596
  C   -3.37288810783809     -1.14381294572706     -0.18793927221246
  H   -3.72412981334237     -2.16156193088752     -0.21805363527704
  H   -3.72278352600895      2.16344951018166     -0.21860151585855
