30
Coordinates from ORCA-job ./opt_b97-3c_parallel
  N   0.00794297837860     -4.10250237624707     -1.18834450407166
  C   -0.02779096072606     -2.98449862049472     -0.87725940386352
  C   -0.18367949477515     -1.61528752956009     -0.51398317806218
  C   1.01022365283742     -0.91984337574379     -0.30331539994488
  N   2.16830702318098     -1.58739711980080     -0.28365046858432
  C   3.11319394776908     -0.72750879375262      0.17239578763228
  N   4.37089795660002     -1.13163163150310      0.31290008252580
  H   5.07995608294517     -0.51566087338721      0.66772074297017
  H   4.61437590345242     -2.07186172869164      0.05600631341841
  C   2.60761284154894      0.56643183855026      0.44716077906645
  C   3.36781243778194      1.67462252244085      0.81102675648099
  N   4.05365846218527      2.56503900660682      1.11704650521259
  C   1.24618695785927      0.53703158863725      0.06308828003175
  N   0.53817357087780      1.61138947635278     -0.07310766135393
  C   -0.70934926361801      1.95325591888012     -0.36181487030778
  N   -0.79191442774827      3.20068950789137     -0.90859643131878
  H   0.07696322031640      3.67797200565532     -1.07436095549378
  H   -1.57584085379293      3.44012107015555     -1.48543597436851
  C   -1.91570476969334      1.30497712174068     -0.03569970134294
  C   -3.11136522787882      1.98834562374242      0.18266574578069
  C   -4.14569980705614      1.08947438582816      0.46603865647000
  C   -3.63578874440709     -0.20308063289964      0.39766555567662
  N   -4.33687319381083     -1.33920530022001      0.68092617890521
  H   -5.33036466239563     -1.30608926278963      0.53444566354914
  H   -3.92888057661134     -2.22865634442610      0.45397972304252
  C   -2.22209962752365     -0.12890943442606      0.07429610478238
  C   -1.52666318655887     -1.26328761876067     -0.24289360492698
  H   -2.14731183197699     -2.15202750977338     -0.27672323669509
  H   -5.15901927223666      1.35287354793163      0.72600242361350
  H   -3.21141458252389      3.06234539326422      0.19831726717575
