28
Coordinates from ORCA-job ./opt_b97-3c_parallel
  N   2.70178438980924      2.72555029035575     -0.52123681118496
  C   2.32819258928788      1.44972166066280     -0.18239603194749
  C   3.22145920167775      0.44426650377048      0.17394182857375
  C   2.51151819234634     -0.73796648170993      0.41133358167688
  N   3.12559392850254     -1.94879723003825      0.72531595722562
  H   2.64603474427692     -2.47353480810243      1.44163874587548
  H   4.09850596748707     -1.84260859624709      0.96543919873180
  C   1.12931110818013     -0.52781684657276      0.17547968865585
  C   0.99202708040996      0.92727349223816     -0.10367318515395
  C   -0.07178895203668      1.79609670494741     -0.02755825834593
  N   -1.31612444136862      1.73725854541290      0.42160742957108
  C   -2.20120696812724      0.77711120076274      0.44510208233108
  N   -3.43808092990325      1.01951955682252      0.91921557332414
  C   -4.20034099535327     -0.02969219745920      0.52149149112219
  C   -3.52864434515391     -0.99117884546499     -0.21475389706367
  C   -2.17041543134601     -0.60895394468616     -0.20170560497276
  C   -1.15339832166926     -1.47499216121172     -0.49304681420254
  C   0.23883760075268     -1.54386046424443     -0.18630565671231
  N   0.72358984494169     -2.82965552477039     -0.26633462000140
  H   0.12838817076513     -3.51402437981346     -0.69567792470461
  H   1.71107681346269     -2.95519293464447     -0.42571350797049
  H   -1.52413363176478     -2.41555484207551     -0.89342539063155
  H   -3.92251136415851     -1.92655952208219     -0.57958532497248
  H   -5.24859427613927     -0.05258556808661      0.79001830293786
  H   0.18385125289292      2.82549834659606     -0.28210993707263
  H   4.29305661012117      0.55538549967204      0.25903841291970
  H   3.55642813268990      3.05316456943876     -0.10332979209234
  H   1.98231543861631      3.42727149213050     -0.50866731141586
