29
Coordinates from ORCA-job ./opt_b97-3c_parallel
  N   1.93997288032273      3.57086392488064      0.28385304101062
  C   1.53209009953676      2.48623621862195      0.20275030219182
  C   0.89352986779246      1.21504572355452      0.09169562574806
  C   -0.52891628341956      1.35033592958356      0.00184088814136
  C   -1.60015244910328      0.52340858192047     -0.04317119003556
  C   -1.80918147619945     -0.93495994034001      0.02387922898819
  C   -0.94451137247153     -2.01754782624621     -0.07603717891737
  C   0.41814398304069     -2.19614383786551     -0.15863174771684
  C   1.54559044343972     -1.36014438946847     -0.09131204261977
  C   2.82487053600158     -1.87519702517500     -0.12816970103391
  C   3.71787107728020     -0.77702493573944      0.02511796776522
  N   3.08944952035429      0.39925224434344      0.14506864197845
  C   1.76148508021736      0.13197512280252      0.06943992283702
  N   5.05189298045929     -0.83440608200214      0.06492965737207
  H   5.54961064263168     -1.69237640734159     -0.07536645008304
  H   5.57054951441768      0.02216179506374      0.14930539266056
  H   3.08888284395457     -2.91595661317637     -0.22589390454197
  H   0.70149304298821     -3.23736308960909     -0.26467113432586
  H   -1.47047825857928     -2.96674285528229     -0.12992411778975
  C   -3.20535258254872     -1.07640196881582      0.08142899580776
  N   -3.87697690505236      0.11163157509578      0.00964663249569
  C   -2.95459388773624      1.05841159921214     -0.08054647437911
  N   -3.31291659005818      2.36590152592450     -0.11789183542972
  H   -2.68973870334646      3.02659045261985     -0.54503297939387
  H   -4.28855602310374      2.53153761266068     -0.29683088291627
  N   -3.94162233084895     -2.22159520110464      0.13182334354453
  H   -3.52704090244903     -3.02135296104379      0.57567049768534
  H   -4.90790294245821     -2.07635236965924      0.37108426752600
  H   -0.79547062396227      2.40039761008593      0.00169739683034
