32
Coordinates from ORCA-job ./opt_b97-3c_parallel
  N   -3.44234821123327     -2.36061425167175      1.26928164151339
  C   -2.60822824262399     -1.67655602788853      0.82853515320115
  C   -1.56121563737087     -0.89278192374100      0.29203250106584
  C   -1.97004815243762      0.38843841712010     -0.27923752746498
  C   -1.37742067278295      1.70906245071844     -0.12293566097834
  C   -0.22695426376286      2.15726335735864      0.46267838808007
  C   1.02168106671924      1.57762117711001      0.78310612987648
  N   1.94710748457134      2.44247749542184      1.42101355233858
  H   2.40218049924508      2.00965168883231      2.21148761381210
  H   1.52798700965901      3.31041665757555      1.71673719950741
  C   1.53310736805519      0.38461670227662      0.28036264962030
  C   2.93550345347307      0.25875985481818     -0.19562004064355
  N   3.13450089654291     -0.85712582084391     -0.87504057925731
  C   1.94762631013600     -1.53531392609814     -0.81118272642845
  N   1.85532113931599     -2.73787530269903     -1.39727583179053
  H   1.06297982407537     -3.31652700437840     -1.16991052426573
  H   2.70677729281289     -3.17428450059451     -1.70358668236600
  C   0.92136678952625     -0.82785265161717     -0.13434704888543
  C   -0.31289449790277     -1.45357669317285      0.29709551388557
  N   -0.15555249762441     -2.79325994641704      0.66348890216443
  H   0.64807725366929     -2.96103814380312      1.25042350847097
  H   -0.98702595666706     -3.22801968230584      1.03767470988401
  N   3.90354553949212      1.17826415860661     -0.05058817273297
  H   4.67354718536014      1.12166397609767     -0.69711738046958
  H   3.61922247607396      2.08559496280761      0.29718801627960
  H   -0.22541504102774      3.23558160840907      0.61608245811265
  C   -2.33603554630826      2.66564807640961     -0.67505216224121
  C   -3.40122169073254      1.98014905791057     -1.15181300776849
  C   -3.18910185215155      0.57463029695629     -0.87657777940080
  H   -3.90604812267401     -0.20889955139193     -1.07103328373894
  H   -4.26806218164126      2.39079870991850     -1.64569468210797
  H   -2.15965493288655      3.72895736237562     -0.73104383807263
