31
Coordinates from ORCA-job ./opt_b97-3c_parallel
  N   4.89664202844862      1.13896900109154      1.40091126041870
  C   4.14939394201768      0.40856828356676      0.88394708930588
  C   3.21200813788189     -0.43411865260635      0.28960509331960
  C   3.44489194882028     -1.49947815208305     -0.60670592765085
  N   2.34573398513405     -2.06965303248756     -1.09920673618989
  C   1.29954632345222     -1.41076998139150     -0.51474187891405
  N   0.11881524569997     -1.92406562837689     -0.50436728317660
  C   -1.03142754677651     -1.59978804514525      0.09220417598112
  N   -1.66266029741351     -2.71198565915224      0.63543695612636
  H   -1.08928011578406     -3.54089254308628      0.60589110456016
  H   -2.11777045217207     -2.56056190865487      1.52152244247106
  C   -1.73686971284852     -0.40490847472193      0.03874191883734
  C   -3.15632177293082     -0.35949148116231     -0.12517089132955
  C   -3.52270263922824      0.94226305198846     -0.48024634942868
  C   -2.38560401530212      1.74593729779042     -0.50199414053983
  N   -2.41699644850988      3.11262313356255     -0.74645502874829
  H   -1.64485480005120      3.45132097863616     -1.30080142596040
  H   -3.29406827210075      3.42523720710427     -1.13131014394671
  C   -1.23914297051776      0.97581410196448     -0.14360262141793
  C   -0.05642115543424      1.53288328146306      0.36048976669566
  N   -0.00618882012538      2.89325275114501      0.53836078705389
  H   -0.86619091705275      3.39734550711859      0.68205925702415
  H   0.80611275881417      3.27415639828126      0.98746810855741
  C   1.18038962467874      0.90418170312922      0.70653624663397
  C   1.80359696834977     -0.22773772984294      0.27131432957893
  H   1.85245187455692      1.56976964077786      1.24072912965329
  H   -4.52591209050173      1.26751617826249     -0.71383444012803
  N   -4.03661051337856     -1.40672989613617     -0.04251029039829
  H   -3.61495993968891     -2.32285579305370     -0.10543626659581
  H   -4.86492620533658     -1.30921942783041     -0.60661754687479
  H   4.42357685209944     -1.85386576025106     -0.90062262151804
