25
Coordinates from ORCA-job ./opt_b97-3c_parallel
  N   -5.78818492846726     -0.82423177803413     -0.40460184949890
  C   -4.64771082010754     -0.65625433999372     -0.26302113275097
  C   -3.27013865636349     -0.43856559881770     -0.08583101145112
  C   -2.66983427153399      0.82101215566145      0.19032100516647
  C   -1.29950888861007      0.65094857699343      0.27626775605203
  C   -0.40997026673652      1.69721229459181      0.65490599819288
  N   0.78425722675670      1.95742475754631      0.16021600733751
  C   1.81629409586380      1.30946118469379     -0.26205579878827
  N   2.87583659594527      1.98262828713054     -0.79103052516361
  C   3.83078083449967      1.06443738872658     -0.86215593942330
  N   3.53366916696405     -0.20293187481520     -0.45112940677062
  C   2.24696411201007     -0.14492659477548     -0.12122092460259
  C   1.51485287325057     -1.31593316803789      0.12655021456050
  C   2.29627744040245     -2.50597088237577      0.22374316267032
  N   2.86212607184749     -3.51192480704691      0.33869523280380
  C   0.13250803165237     -1.55071758363082      0.11886781864614
  C   -1.01378743470757     -0.77369716691431      0.06307627277238
  C   -2.26971719551459     -1.40220803099131     -0.12450475264875
  H   -2.41380762340214     -2.45680044649228     -0.29058993020541
  H   -0.09358731964311     -2.61035857759556      0.10543328900071
  H   4.81860936923084      1.30083375925418     -1.23101134883151
  N   -0.87343999340504      2.63702548834777      1.50015564986237
  H   -0.31042557157219      3.45095002042247      1.67843487889495
  H   -1.68612980501714      2.46925485672984      2.06295354947798
  H   -3.20507740814520      1.75205496252447      0.27914255209623
