31
Coordinates from ORCA-job ./opt_b97-3c_parallel
  N   -1.92021556797985     -3.82349778303287      0.50531653312455
  C   -1.34182825903240     -2.83624330938541      0.30710919163387
  C   -0.52588870365721     -1.68486579527357      0.11386941535488
  C   0.80871327829339     -2.04532506771242     -0.20136342300476
  C   2.00405509673191     -1.39348890196738     -0.36481326930386
  C   2.52159407378389     -0.06545607396392     -0.07783437438191
  C   1.86435625349190      1.01515452682490      0.53973593802873
  N   0.61237776922905      1.39977274885518      0.41126973592923
  C   -0.55983576542951      0.94720497129870      0.09049462713521
  C   -1.61142156817892      1.85437072266543     -0.17752652238312
  C   -1.50920406467890      3.24362715836712     -0.23091497549400
  N   -1.47885903146387      4.40630829781563     -0.28455582103481
  C   -2.82488794840124      1.13633500537189     -0.20121523083110
  C   -2.56042887553820     -0.25536345845448      0.00935392219031
  C   -3.62442819276684     -1.15722352460129     -0.06688970257475
  N   -4.62960160164406     -1.73926150724070     -0.15491796135484
  C   -1.17015897193425     -0.44408822166336      0.11398935998507
  N   -4.03160047403399      1.64836420387211     -0.38995753402820
  H   -4.84610180725892      1.05643110499941     -0.37446582118740
  H   -4.15446796028624      2.63155173387210     -0.56003914677385
  N   2.61992024664342      1.88310246654066      1.27431972109017
  H   3.43694711555209      1.53663337512459      1.74768075775491
  H   2.12352668850691      2.64326957804493      1.70859273732489
  C   3.89296870346086     -0.14427305940419     -0.38130817256531
  N   4.25553886942753     -1.39043894822723     -0.82791913278702
  C   3.15716334335108     -2.12200187155197     -0.79481721784107
  H   3.16578470562393     -3.16466359470686     -1.07952053568181
  N   4.85534089401790      0.81034650084532     -0.27324859088697
  H   5.70279563817566      0.59825798209074     -0.77409634471405
  H   4.56348028963964      1.77223399035081     -0.31855567156020
  H   0.89658165735861     -3.11042338825051     -0.38251658366892
