26
Coordinates from ORCA-job ./opt_b97-3c_parallel
  N   -1.81411807337093     -3.57356161859588      0.22133500643184
  C   -1.37557764465752     -2.49892105969600      0.16173688246018
  C   -0.82681085624049     -1.18539601870929      0.08231719321033
  C   0.54217562070987     -1.19149787746298      0.07315800052122
  C   1.56601471838244     -0.21794550089067      0.01563050183785
  C   1.58690189076549      1.22327640257553      0.05918754956442
  C   0.66836292670795      2.22852008219376      0.07989558722370
  C   -0.74747164108038      2.26430864186028      0.03112368580743
  C   -1.74387577383413      1.33651085367618     -0.01307075339596
  C   -3.12299079819583      1.82787399279222     -0.08237129239700
  C   -3.96177458977057      0.77289804374331     -0.10052168737755
  C   -3.16546665712106     -0.43514495090491     -0.03957166882383
  C   -1.82749411912941     -0.13709248506676      0.01065776420481
  H   -3.57477838271389     -1.43289412481801     -0.03245408019869
  H   -5.03897786588254      0.79842935211098     -0.14906421169490
  H   -3.37823164480408      2.87525559562413     -0.11357417330215
  H   -1.12278956659956      3.28221281660996      0.01791879941398
  H   1.11004266126213      3.21873333496598      0.11343894055262
  C   3.00723714064364      1.57115474255578      0.04951249280445
  N   3.78406081239058      0.53432584923140     -0.00635416241562
  C   2.92060298257432     -0.57119455819723     -0.02901466269464
  N   3.49900162148481     -1.78428603341636     -0.06159969555817
  H   2.97187885105608     -2.60310444434030     -0.30168929880033
  H   4.48908815654868     -1.81286458626261     -0.22791707673467
  H   3.39723936995272      2.58014344794842      0.07028602153097
  H   0.93510585622164     -2.19947647622690      0.14175532832974
