27
Coordinates from ORCA-job ./opt_b97-3c_parallel
  N   -2.04083087593641     -3.68488381991038      0.32077789317783
  C   -1.39662405328399     -2.72118785618298      0.24298396218136
  C   -0.62261664199980     -1.52888661573439      0.14675517447646
  C   0.74214794340243     -1.75987043315847      0.14109689350333
  C   1.90115100190889     -0.99063672512818      0.09690497310447
  C   3.14414416878950     -1.63833824920833      0.26558883492047
  N   4.18557738462688     -0.79510749464368      0.24496054424584
  C   3.66350025773969      0.42360391085978      0.01787285165219
  C   2.25832116118450      0.41223523706364     -0.09006529942205
  C   1.50395925244858      1.56030120191929     -0.39559991725130
  N   2.20361474737144      2.66464472257547     -0.77372296209435
  H   3.15150076508763      2.57882151000239     -1.08517083440819
  H   1.71465309860973      3.49370621853029     -1.05356609652468
  C   0.11264826063365      1.80876641787421     -0.30348970579318
  C   -1.04111257916610      1.11199500110559     -0.05560956820502
  N   -2.18088213531734      1.86945243296257     -0.02226703180058
  C   -3.19201880880098      1.02127889086647      0.16413657075327
  C   -2.76913873817692     -0.34019973706350      0.24859041716017
  C   -1.40309116915567     -0.33726383774753      0.12351805527715
  H   -3.40004742335998     -1.20275957383719      0.38189738985685
  N   -4.45557928863055      1.45323251893979      0.24433468120364
  H   -5.20990354786679      0.82895484651735      0.45671270194283
  H   -4.63636835524209      2.44094399823955      0.22772036466842
  H   -0.13623261943725      2.85221658656873     -0.46496433560582
  H   4.31746675914613      1.28380676698719      0.00565623317698
  H   3.28226198451566     -2.69878722485739      0.42238811131004
  H   0.97540486480935     -2.81543108454050      0.22804966929311
