30
Coordinates from ORCA-job ./opt_b97-3c_parallel
  N   -3.05796165435087     -3.52635283806295     -0.09064410315241
  C   -2.58516982449176     -2.46351375404566     -0.03149997913542
  C   -2.09325603587820     -1.16092024601271      0.02989963318031
  C   -2.89642130088160      0.00033178401868     -0.12110685026216
  N   -4.20072632510405      0.00029889482477     -0.36284110773945
  H   -4.70713929642905     -0.86362587242637     -0.45233660832143
  H   -4.70706549669520      0.86420058603670     -0.45297467728780
  C   -2.09315646221965      1.16162587220764      0.02904462459587
  C   -2.58495991099941      2.46421558418881     -0.03330685149918
  N   -3.05765815023484      3.52705112602754     -0.09325942259666
  C   -0.75908387517383      0.76557622538194      0.25613803924580
  N   0.18626111266283      1.62581961697032      0.48002469958646
  C   1.50918653529403      1.62221609080201      0.38289964829108
  N   2.08170299590624      2.72132847632407      0.92045058074730
  H   1.49425874945055      3.47226518724139      1.23770235998451
  H   3.07738573863740      2.79417108991028      1.00263231744641
  C   2.36030298735423      0.72379358546035     -0.31842561416652
  C   3.52498361881741      1.13254917039650     -0.99411564550065
  C   4.20867797914179     -0.00046614663121     -1.44136852069874
  C   3.52488709083073     -1.13309085150406     -0.99327344193604
  C   2.36024313750890     -0.72373271532095     -0.31788372970763
  C   1.50904724790697     -1.62155875266304      0.38410813077686
  N   0.18612106498470     -1.62497688930631      0.48122602187878
  C   -0.75914902649918     -0.76481861985252      0.25670313801323
  N   2.08146556566885     -2.72031571678409      0.92248970666650
  H   1.49395377471487     -3.47096525450363      1.24029634722460
  H   3.07714147268771     -2.79318326185181      1.00473560045656
  H   3.79523473488955     -2.15833073219481     -1.19459391688378
  H   5.10591456632856     -0.00072732582785     -2.04052488271299
  H   3.79541944907305      2.15761586459785     -1.19619869639410
