34
Coordinates from ORCA-job ./opt_b97-3c_parallel
  N   -6.00936883752234     -1.92095640707387      0.69886345905399
  C   -4.93166809285646     -1.62150204244830      0.38053190567135
  C   -3.65122149936728     -1.17154205336523      0.03274728695796
  C   -2.62180078074883     -1.87765717397003     -0.54463994859987
  C   -1.46061720918576     -1.04659827721553     -0.59181425288978
  C   -1.85115322611634      0.27671989659779     -0.11782217105709
  C   -1.20622088524061      1.52740393382929     -0.38500090529865
  N   -2.05255456018682      2.56106468443910     -0.64365034419100
  H   -1.67564982865712      3.46072967710870     -0.89212849618592
  H   -2.97486667474895      2.35612826518902     -0.98393397244787
  C   0.16826056033644      1.83051559457773     -0.35342584445179
  C   0.48015388530110      3.17034231697947     -0.68437340616883
  N   0.68823753447900      4.28151329102459     -0.96397867326012
  C   1.28613804804545      1.10140830266940      0.16926215495723
  C   2.34447505471807      1.76866088309185      0.74432224331143
  C   3.38050661963281      0.84590476445979      1.03721501724692
  N   4.51929492301308      1.11279126550972      1.66927275147051
  H   5.18729644566836      0.38041420483362      1.84645887903781
  H   4.74603368656648      2.04188204547389      1.97236796280324
  C   2.99491551429434     -0.43952762242758      0.57546285282436
  C   3.79647294827255     -1.55468162395286      0.82707525749073
  N   4.55936799155271     -2.37952413670804      1.13341082376463
  C   1.70205660763083     -0.33364891151449      0.01572361085930
  C   1.08698045929339     -1.36763082397639     -0.69485252876622
  C   1.93664324832964     -2.40889166172505     -1.17048504051809
  N   2.57334165882647     -3.25573367023953     -1.64519494717252
  C   -0.27308751812118     -1.64517628383722     -0.94166969465209
  H   -0.41248455413357     -2.62176087811459     -1.38836580085649
  H   2.38249723934819      2.82588084840274      0.94669456262066
  C   -3.19223021851344      0.17566438712255      0.28065439721779
  N   -4.02703781921309      1.13864564971930      0.76562659565687
  H   -3.60918151512533      1.92620107435366      1.23044396159850
  H   -4.88124908203029      0.81436592191348      1.18957589116675
  H   -2.64193059044138     -2.92056908322791     -0.81269868549432
