36
Coordinates from ORCA-job ./opt_b97-3c_parallel
  N   -3.59285183843233     -3.38015308069144     -0.96606880409270
  C   -3.14390970743176     -2.33940386686087     -0.68808838173406
  C   -2.63625118856019     -1.08596888562255     -0.36121371346569
  C   -3.43294957538935     -0.00187937962698      0.10168102929556
  C   -2.59366279767404      1.08648232264926      0.39113991766009
  C   -3.03858111018412      2.34992853927944      0.76093751731888
  N   -3.42608206880005      3.40803835394204      1.06661649444910
  C   -1.24048159307778      0.71700374254851      0.07430949375400
  C   -1.26679414319863     -0.70973709630345     -0.32044598404562
  C   -0.26761851352262     -1.60822599342413     -0.61218992557494
  C   1.10857083931599     -1.70063611822468     -0.32072980300669
  N   1.58051694597869     -2.99240028447422     -0.44982906842056
  H   2.54807586881585     -3.12299408942211     -0.69134825099600
  H   0.95293120512660     -3.66678432606703     -0.84864476302733
  C   2.04003628665926     -0.74069624481062      0.13046367194208
  C   2.10847364262304      0.71142840688366     -0.16668100341815
  C   1.11792344963976      1.64790286515428     -0.42161807333042
  N   1.52240885895403      2.89034742932125     -0.92012686236428
  H   2.22885527125808      2.84511338261953     -1.63682532262424
  H   0.76174535051450      3.48944931405025     -1.19378667956136
  C   -0.26039423704275      1.64918748777573     -0.05585768286094
  H   -0.62270873237171      2.66180825779183      0.10398947888566
  C   3.47061167390016      1.11150756435746      0.09211984798773
  C   4.17007920977132      0.02279448565474      0.58986598597076
  C   3.32687985808307     -1.09388621972371      0.61529529645384
  N   3.77081158429062     -2.34406009575829      1.01201164941360
  H   3.06409715962903     -2.93685827226822      1.41769582749657
  H   4.60161160058091     -2.31235936290361      1.58003270938369
  H   5.19156535273871      0.04305362032079      0.94070621952801
  N   4.01272775019903      2.37607708258448     -0.01560109284432
  H   3.34309434398459      3.12798125285991      0.07140116057816
  H   4.81754089712976      2.51589662588748      0.57457305556068
  H   -0.67056544277793     -2.54196066605443     -0.99155402445034
  N   -4.76167123906910     -0.03803658782274      0.25309517566362
  H   -5.26442760301291      0.78350072002612      0.53586357355939
  H   -5.28922740963746     -0.83256994476158     -0.05975324298087
