29
Coordinates from ORCA-job ./opt_b97-3c_parallel
  N   1.10380767399411      4.31356335602709      1.07845932488816
  C   0.79806567084962      3.24101641245284      0.75900262896631
  C   0.58588093493391      1.86724662999736      0.43018990362981
  C   1.79656046588365      1.11470556378384      0.45857902602067
  C   2.13228300165169     -0.13224329311368      0.04623874973814
  C   1.41951367715359     -1.32218347683195     -0.39571320041733
  C   2.40188311087242     -2.12844380172301     -0.94758012444607
  N   3.66369190009220     -1.60539698495777     -0.90110841599797
  C   3.55181719308204     -0.45760690380981     -0.25873760196016
  N   4.61222033704798      0.33969878863711     -0.05391409673031
  H   5.51185713748147     -0.02795805273708     -0.31091582889790
  H   4.60102317742750      1.06599225915193      0.63723713949364
  H   2.25737788817359     -3.09782726598990     -1.40148650057358
  C   0.12505913034242     -1.81477736419991     -0.02680114860649
  N   0.04685541429597     -3.15768704525837      0.08597003682530
  H   -0.82409924307678     -3.59898726062187      0.33263868710986
  H   0.88388515782598     -3.69672358489353      0.20801750852410
  C   -1.06549524314767     -1.09021588373244      0.19549996141737
  C   -2.12200320022193     -1.85507726532429      0.74241743432724
  N   -2.91878559273610     -2.53768726621811      1.24657313588526
  C   -1.40233173622079      0.25185285060152     -0.15822430814649
  C   -0.68718071345738      1.54030920066574      0.01610587394267
  N   -1.54859928961894      2.59979967063418     -0.21410440703415
  C   -2.70283005036944      2.07939282320057     -0.53942630303854
  C   -2.69494922915093      0.64095847785907     -0.50331924254660
  C   -3.78035389516458     -0.16040155162303     -0.87800234095712
  N   -4.70005401091797     -0.77325214732173     -1.23832593011502
  H   -3.54273393224642      2.69200358955533     -0.83387200225090
  H   2.63310867062107      1.74262790958931      0.73658351684989
