27
Coordinates from ORCA-job ./opt_b97-3c_parallel
  N   -6.32966864381878     -0.86225420512942     -0.29888148439550
  C   -5.20702232944473     -0.57668293411324     -0.22029896639202
  C   -3.84582473387762     -0.23353877504307     -0.12448052080858
  C   -2.77458385131371     -1.15697097902593     -0.02231977595344
  C   -1.57250864457477     -0.45988921223102      0.04136634988106
  C   -1.92804513848577      0.98884653772698     -0.00351762586984
  C   -1.17812023880697      2.13335209779445      0.09445137112757
  C   0.18861252369897      2.42318869783417      0.18784533958722
  C   1.37453357218470      1.72918083931588      0.12412625231316
  C   2.58308111982484      2.48221849557088      0.09161927125418
  C   3.63734865904167      1.63813966805738     -0.10089413858350
  C   3.15838635120026      0.29013417280231     -0.15355412407138
  C   4.04140237036721     -0.76618866313769     -0.42713469850165
  N   4.86033026567826     -1.54271416429532     -0.70477724736381
  C   1.76505960963039      0.28577368148696      0.00807261048553
  C   0.99367215232074     -0.89155340824353      0.15236363994815
  C   1.72345882145035     -2.10325549923727      0.36701750221628
  N   2.21057332978009     -3.12848845857275      0.60787332951585
  C   -0.37588703280801     -1.16323133855347      0.14876454829273
  H   -0.56420971992526     -2.22621806676760      0.23674071826642
  H   4.67450035441417      1.90871760965613     -0.21622149975883
  H   2.62464409040500      3.55718353851487      0.15334144947934
  H   0.35987932209018      3.49044654849503      0.27383116846313
  H   -1.78591560714199      3.03179286890129      0.09133106673550
  C   -3.33448423381642      1.06003767130478     -0.10654857435030
  H   -3.91098338516829      1.96861574956863     -0.15167950438019
  H   -2.88034933590448     -2.22893441287942     -0.00494729843709
