35
Coordinates from ORCA-job ./opt_b97-3c_parallel
  N   4.91926520362146      2.39496287947735     -0.50396665043490
  C   4.24100687682621      1.46661491652536     -0.30635543179292
  C   3.46288325984162      0.34043507076224     -0.05994347977208
  C   3.92656433489362     -0.88486466587913      0.53640308288692
  N   2.96473607588450     -1.78636274220571      0.67632553049064
  C   1.81546551292328     -1.20892312607748      0.18936542390360
  C   0.74240206986206     -2.01485540696720     -0.04101556547032
  C   -0.59197285392076     -1.84161202370005     -0.49787076168598
  N   -1.15612033565487     -3.03978693480938     -0.93770072535215
  H   -1.82200342124032     -2.94610710191509     -1.68769592575151
  H   -0.48837966817542     -3.76869432989825     -1.12356316086489
  C   -1.44911466177050     -0.75080401019885     -0.37133247241977
  C   -1.18899063379005      0.69893722816047     -0.21738209855753
  C   -2.41058080755430      1.28729604426089      0.14984916124477
  C   -3.41955444589869      0.28714993434381      0.20897271831432
  C   -4.72972775944676      0.48327932830765      0.64214113246671
  N   -5.82327928158802      0.64914146742135      1.01083426902401
  C   -2.85512352957753     -0.94567767373353     -0.14243978620904
  N   -3.56987207979323     -2.11360237382750     -0.14491963367399
  H   -3.03051227583307     -2.95295891100034      0.01009063060768
  H   -4.42482133149075     -2.07936887259659      0.38907528165527
  N   -2.70746309868651      2.61287319277226      0.36923924951397
  H   -1.94953781296379      3.17967115907454      0.71163525710816
  H   -3.56859271637266      2.76867741306365      0.86905438034220
  C   -0.08834660037987      1.47302499229008     -0.69639123472247
  N   -0.40036369885206      2.75472693255282     -1.09064307387856
  H   0.33171183313079      3.30273326951963     -1.50513224794574
  H   -1.32464260346178      2.93915898694952     -1.44005291579911
  C   1.27637925841604      1.19091958677157     -0.76296843383957
  C   2.07868599546004      0.19351144066157     -0.23510474598579
  H   1.85998325335509      2.01109943916750     -1.16985724291982
  H   0.98329025671505     -3.05359981993188      0.16310924373507
  N   5.19341939677100     -1.12024932394816      0.90202373256989
  H   5.87241757850419     -0.38152810518069      0.89125726796625
  H   5.39821275284494     -1.95421661270479      1.42193184134356
