27
Coordinates from ORCA-job ./opt_b97-3c_parallel
  N   -0.06830430983405     -4.20989423016724     -0.18200994427236
  C   -0.25906067559283     -3.06508669495456     -0.14209234290476
  C   -0.48528047049219     -1.65693946262357     -0.09908133080943
  C   -1.84040585289931     -1.34258711699127      0.04725034193847
  C   -2.60043091028810     -0.18968893886261      0.10424912721446
  C   -2.29216466599142      1.24300159292075     -0.08758037651745
  C   -1.11608564037508      1.95364034830433     -0.26677823861618
  N   0.17244324792895      1.69367085990221     -0.15827683514584
  C   0.91995319240365      0.62546005526132     -0.05024421494653
  C   2.31202313215878      0.79642308086127      0.10235538861052
  C   3.01189233272418      2.00056016778461      0.18837743067784
  N   3.68819806157367      2.94445839764994      0.26840378068917
  C   2.94022980290498     -0.47368455244529      0.03823365042184
  C   1.95104671941561     -1.47002990806390     -0.12339451721041
  C   0.69796982794563     -0.88581156123085     -0.13776462626308
  H   2.14922609519617     -2.52834631098520     -0.16049452473167
  N   4.25383192718549     -0.67469261809769      0.11956890125447
  H   4.64896378971289     -1.59218967546519      0.02525028493698
  H   4.88402031498624      0.10065413537254      0.23541943425831
  H   -1.29205993544402      3.00498899369754     -0.49007081486807
  C   -3.52775276380937      1.92148198335040     -0.06995308053792
  C   -4.55475055414894      1.00578742295093      0.14612588655837
  C   -4.00003033955474     -0.27128795552014      0.24217872006990
  H   -4.54475769168491     -1.19351651761033      0.37447038718779
  H   -5.60553804562184      1.24146784636679      0.21217130117987
  H   -3.63747730006447      2.98836632769082     -0.18656984111094
  H   -2.45158576313533     -2.23373443729571      0.13498442883646
