34
Coordinates from ORCA-job ./opt_b97-3c_parallel
  N   5.92255004260413      0.34644955559322     -1.46956545578580
  C   4.89234499246249      0.14319323656785     -0.96731794593356
  C   3.63572532695517     -0.02471006493661     -0.37490132234669
  C   3.10911715916246     -1.17841657791514      0.20083785976637
  C   1.75989109393378     -0.94050181003771      0.53974354323787
  C   1.45858749167688      0.44150919145879      0.20676875124594
  C   0.38749490081222      1.26963486751030      0.70140546523326
  N   0.76428587611554      2.46767233415940      1.19167978184534
  H   1.73295250802165      2.73402285969567      1.16855054536448
  H   0.08390111705990      3.17202030850232      1.42376562124515
  C   -0.99201316867406      0.98846635984352      0.67351082875005
  C   -1.81852769605087      2.00049890975771      1.21238912623315
  N   -2.42140597327558      2.86233180568587      1.71120393284188
  C   -1.66893664381980     -0.10635578844897      0.06483376136429
  C   -1.38942432852025     -1.57039505474857      0.10901889025742
  N   -2.46273403976277     -2.27435760723820     -0.37932077132802
  C   -3.36503614443331     -1.38228409929705     -0.74847598110943
  N   -4.52592135138756     -1.70340467990435     -1.32043103454694
  H   -4.73213992044008     -2.66608027876269     -1.51651857128337
  H   -5.16982122932272     -0.99331276879923     -1.61880788558862
  C   -2.94287198246519     -0.02061150649038     -0.47659486634337
  C   -3.70993630259629      1.09286561404549     -0.82349280696670
  N   -4.41975516294417      1.94020548863943     -1.18870106888915
  C   -0.38071676523215     -2.28425055015199      0.69482957567798
  C   0.95988902607770     -1.99401687406052      1.03264134356996
  N   1.58530010666895     -2.94997259235895      1.76373906672705
  H   2.54959344440399     -2.84081906601884      2.01582075829700
  H   1.17307949830951     -3.85687058842603      1.88808372691524
  H   -0.65207826083188     -3.32664634451178      0.82491137121063
  C   2.63091801803594      0.98733490484824     -0.33957012119048
  N   2.85659570266356      2.29850214069852     -0.72342458491174
  H   3.72452853733665      2.42799637871864     -1.22123757514844
  H   2.09184493335074      2.73585926172355     -1.21345088182897
  H   3.60379552680590     -2.13515629364276      0.20514135921908
