30
Coordinates from ORCA-job ./opt_b97-3c_parallel
  N   -3.73355342405404     -2.76420513170907     -0.28109516979232
  C   -3.23265416495951     -1.71428307130594     -0.19288511041414
  C   -2.66348002696971     -0.44912803006983     -0.09328947926781
  C   -3.37674020587154      0.77303046368380      0.08365572402011
  N   -2.57040334201386      1.83723195497073      0.13061222241510
  C   -1.29589126668160      1.37424621667753      0.00522698769709
  C   -0.27859579983560      2.29834768381182     -0.07696608366892
  C   1.11075976051243      2.21967014174552     -0.14900951022117
  C   2.07600080946275      1.23798552086655     -0.06870565120981
  C   3.43148219543436      1.66130306555634      0.04709050683110
  C   4.23290365672466      0.57932684596863      0.30147220213298
  C   3.42842129510004     -0.58777546268271      0.31010530819251
  N   3.96078603393238     -1.85431587176558      0.52197974889829
  H   3.36573112826171     -2.47837132529538      1.04453167631612
  H   4.88777298049579     -1.82902489222848      0.91538968749222
  C   2.08757983705726     -0.23692759875162      0.04185561312148
  C   1.07690439145483     -1.18084281862944     -0.26836595658986
  N   1.51737654349163     -2.46647544255543     -0.50836701098902
  H   0.84375890965374     -3.11228046167293     -0.87979925284723
  H   2.44890616228816     -2.58130487286300     -0.87160494032515
  C   -0.32229408905764     -1.07366250890834     -0.32419384923757
  C   -1.29228246821287     -0.10979549680987     -0.12449494669280
  H   -0.78173797081544     -2.03799451852225     -0.52109938251236
  H   5.29642250064082      0.59391456247268      0.49000443745348
  H   3.74115181480993      2.69387278793110      0.01750066907027
  H   1.55858931920646      3.20594816016032     -0.21644871043980
  H   -0.66200400235563      3.31103590330437     -0.05717072345855
  N   -4.70381391572726      0.88858097028686      0.21654383150911
  H   -5.10771323587754      1.80675721595836      0.24899960573014
  H   -5.30549365499423      0.09930519047575      0.07014417988589
