31
Coordinates from ORCA-job ./opt_b97-3c_parallel
  N   -6.44280265703457      0.30363887197844      0.91048773202768
  C   -5.34083864803208      0.18238397771247      0.56213127039329
  C   -4.00795925315920      0.04614681925996      0.13875175797558
  C   -3.46885820233636     -1.02940656799228     -0.56065773255402
  C   -2.07876234288685     -0.82550496543641     -0.71345951869233
  C   -1.30957802410689     -1.82986643733911     -1.29198172472219
  C   0.03193551171086     -2.14887221780638     -1.28675791086418
  C   1.15279534025462     -1.60525652710923     -0.66464365393367
  C   2.31390149461099     -2.36645925396973     -0.51770921239940
  C   3.27258219170730     -1.61506271690569      0.16398496291573
  C   2.73969406478378     -0.29886662915319      0.40238409914943
  C   3.46927493870751      0.64466728202140      1.12898594117427
  N   4.16707375099961      1.31503108383342      1.77666368561124
  C   1.43910836184216     -0.24042593934880     -0.10766506900909
  C   0.75473892715332      0.98600235716820     -0.28126059281117
  C   1.60981497196895      2.11187449055035     -0.40064734925942
  N   2.23142193436332      3.07911134575428     -0.57781569717164
  C   -0.62913041474268      1.32882845278116     -0.27694781348914
  N   -0.91073910301741      2.65007044825000     -0.30865792762619
  H   -0.18174132189140      3.34247944226702     -0.33659573496924
  H   -1.84368537028350      2.94645520870553     -0.52305815546941
  C   -1.77659869606940      0.48882013642147     -0.14047772375020
  C   -2.97378716796492      0.98815011171355      0.36890562988513
  H   -3.10717203985095      1.91525462770199      0.90122753760796
  N   4.48309102864209     -1.99851208995519      0.57094811838824
  H   5.07598237737933     -1.36275067568286      1.07750301923049
  H   4.81618289107272     -2.93220103451015      0.41947905036064
  H   2.42090642335418     -3.39163100633088     -0.83243168136251
  H   0.24369690263166     -3.10542642147906     -1.75131903710164
  H   -1.91935132172479     -2.59677306384396     -1.75794124102770
  H   -4.00226414928030     -1.91144991245628     -0.87413855710509
