25
Coordinates from ORCA-job ./opt_b97-3c_parallel
  N   -3.34622078364938     -2.11823275583318     -0.07430346909310
  C   -2.74714394800686     -0.88571328008843     -0.20328479956843
  C   -3.42324846901758      0.31213120829584     -0.51548156452380
  C   -2.51539153866344      1.35711757043156     -0.45678904088614
  C   -1.23371383047257      0.84825455459072     -0.16161573020635
  C   -0.11993247495677      1.66695867823276      0.02087655501091
  N   1.15799958116316      1.41501103350983     -0.30602368429236
  C   1.94014624104236      0.40741405179569     -0.26863034054745
  N   3.22977643096621      0.55656087327887     -0.76313394270262
  C   3.84018740919171     -0.57814421282773     -0.48476498661326
  C   3.03824165488142     -1.54999879517277      0.18143183467208
  C   1.78162571876515     -1.01516219463669      0.31926046439260
  N   0.74886125372433     -1.72296009087434      0.78393205135720
  C   -0.54264208591787     -1.55711072003329      0.62340279916352
  C   -1.37500371671610     -0.60213697367195      0.01947489694978
  H   -1.10300307939168     -2.39133700456936      1.04734117224706
  H   3.33005583696552     -2.54230100981547      0.48204399460550
  H   4.88057105170246     -0.70957689100179     -0.75746644735624
  N   -0.30530846194333      2.96475238224510      0.39071404271354
  H   -1.08412582675603      3.20750148188918      0.97273297681032
  H   0.50287502482773      3.56178574597366      0.40156104370845
  H   -2.72741912919964      2.38836433170289     -0.69097286543056
  H   -4.47112554594604      0.39257957454547     -0.76358490965525
  H   -4.28397399154821     -2.17592151206679     -0.43218843471960
  H   -2.79267597104441     -2.91208426339945     -0.34599675653578
