30
Coordinates from ORCA-job ./opt_b97-3c_parallel
  N   5.43332449115820      0.35976547221491      1.34481374090583
  C   4.34714425910009      0.39544320819528      0.92552520985371
  C   3.04419934426216      0.35877056610422      0.41801086703744
  C   2.20647811549940      1.44060956906667      0.10987516702511
  C   0.96185942317876      0.93396811902819     -0.28735867967155
  C   -0.11194950120155      1.77113485372389     -0.69519665715000
  N   -1.38871070906765      1.68441136716100     -0.35786578666380
  C   -2.15609783291152      0.72537494087318      0.05090570303594
  N   -3.28968200524988      0.99901016999223      0.72546678836931
  C   -3.89651888087308     -0.18852708933280      0.90992390483290
  N   -5.04374017329132     -0.24384080234938      1.58555700696793
  H   -5.42981144315927      0.60623186272370      1.95748202328678
  H   -5.52317213065910     -1.10918165659594      1.74576570253594
  C   -3.21251620824635     -1.30100117434763      0.33677892875894
  C   -2.05957175021077     -0.80045911927255     -0.20964329246207
  N   -1.16528600214638     -1.52588613143862     -0.86853774376881
  C   0.13977843772696     -1.42816196372926     -0.93972993539479
  N   0.73134278657104     -2.35794175030357     -1.73154513083343
  H   1.73268740369416     -2.46011191531660     -1.70852544437333
  H   0.17524601856062     -3.14485434137010     -2.01693262322451
  C   1.03532683614446     -0.51168429209860     -0.26839155200267
  C   2.33276623271453     -0.84315671684955      0.14328082011550
  N   2.89991357299273     -2.11716994772965      0.18428157911468
  H   3.82125117809683     -2.11391546435603      0.59753627335724
  H   2.32201870234091     -2.80248115567462      0.64750187274827
  H   -3.52188204091365     -2.33277719176914      0.34031932323096
  N   0.20062196984578      2.88694367287411     -1.39057386823666
  H   1.13386072884231      3.03107177837189     -1.72613442769629
  H   -0.47752992814735      3.62483847825981     -1.46299037034377
  H   2.44370214574739      2.47834390904324      0.27708470604636
