34
Coordinates from ORCA-job ./opt_b97-3c_parallel
  N   -4.36912035760872     -3.42048778594891     -0.27225887871653
  C   -3.83900592254134     -2.38226969945309     -0.25339776829448
  C   -3.24003451604258     -1.12654383019681     -0.23705473663604
  C   -3.86512274283028      0.09265208996013     -0.55462784243054
  N   -3.02481409944270      1.15596827811936     -0.41989834985132
  C   -1.83278090922092      0.68081969817697     -0.05366340759817
  C   -1.89824459004674     -0.80075412403406      0.10952339887454
  C   -1.03265963299711     -1.72332913083222      0.64048784085817
  C   0.34097052399495     -1.73334616566481      0.89951601870309
  C   1.38271376071173     -0.89746667158932      0.59525044726322
  C   1.46641605428609      0.46419404590688      0.04409880998541
  C   0.58570566542862      1.57457430487371      0.25201441572274
  N   1.20832420534313      2.76836880039721      0.40217535245248
  H   0.67074317890987      3.60524964421951      0.55651148130463
  H   2.18843696598138      2.79926905394042      0.61504073500779
  C   -0.83528735111759      1.63530856084729      0.26577039609612
  C   -1.36313777572973      2.93660257643038      0.46873673459412
  N   -1.67162654058586      4.04022318795558      0.67082472354494
  C   2.79491253169987      0.63850334354042     -0.37666658118958
  C   3.56624033080627     -0.51908089706625     -0.04432549617157
  C   4.90659346370221     -0.71916859861511     -0.37159149671496
  N   6.02627057514306     -0.88275491461153     -0.65006731285757
  C   2.73152839779642     -1.43398064386560      0.59431125590206
  N   3.14109234290816     -2.62577808226910      1.08380767786664
  H   4.03307868353785     -2.97493197086688      0.77720436163344
  H   2.46426454871803     -3.33543965702339      1.29335288059114
  N   3.37644974156949      1.72831332932672     -0.96526050208680
  H   2.78104887918030      2.31193495894113     -1.52819221490730
  H   4.28136066188795      1.56655570916796     -1.37744079305137
  H   0.64472021197231     -2.67965531040232      1.33265020767123
  H   -1.50380226628399     -2.67960496085582      0.83918431940997
  N   -5.11780971111119      0.28384641117366     -0.96248106248530
  H   -5.75952030775089     -0.48234332340848     -1.05476183293792
  H   -5.44178200816631      1.22069375202939     -1.12261322105450
