27
Coordinates from ORCA-job ./opt_b97-3c_parallel
  N   -4.75731518870987     -2.48304891870604      0.38938588622180
  C   -4.17761196950500     -1.47784276765047      0.31180957936021
  C   -3.50648192700581     -0.25397604711567      0.23976302417832
  C   -4.00224371615475      1.03091525730043      0.71940711137285
  N   -3.17229460508125      2.01254387896337      0.55530353102040
  C   -2.02082743888629      1.45835644983480     -0.03131263248454
  N   -0.95954042321795      2.16259192661254     -0.08508820720044
  C   0.34174630155329      1.94813500003867     -0.32514308337974
  C   1.12219805146075      0.83201761624752     -0.15717335886945
  C   2.56810009501921      0.96882579789698      0.02074533046402
  C   3.13980861547461     -0.29933201088114      0.04795828767083
  C   4.48587504801167     -0.59651880093160      0.25104048045943
  N   5.61066908092193     -0.84982124838033      0.41990995825284
  C   2.08118609611910     -1.25330884703042     -0.12767885080131
  N   2.30403586163320     -2.56981225612152     -0.22655763449105
  H   3.23567731039530     -2.93247705078500     -0.12798043184127
  H   1.54993151839347     -3.22605479750729     -0.14582728287872
  C   0.84009538289389     -0.59234096281328     -0.22647191759481
  C   -0.26346918180352     -1.22931022911840     -0.84976727025400
  N   -1.52138716301791     -0.95164632662047     -0.89765618103054
  C   -2.26742064394973     -0.01732488891578     -0.31868576979919
  H   0.00034277355808     -2.11532022326583     -1.42913825540281
  N   3.23115444140233      2.12407887708129      0.16844057728729
  H   2.74355158027004      2.96703374268512      0.40570065154261
  H   4.21408341233025      2.10393790487143      0.37791817991510
  H   0.86351465784341      2.87561894728366     -0.54448343699501
  H   -4.98581261514852      1.18208099802750      1.14372739427791
