29
Coordinates from ORCA-job ./opt_b97-3c_parallel
  N   -6.43972594140298     -0.00016668544306      0.02314663710307
  C   -5.27837978765484     -0.00013592831877      0.01815115355356
  C   -3.87160179073816     -0.00010256853170      0.01199977130978
  C   -3.05277855018390      1.13970671528225      0.00915332785554
  C   -1.70718344750187      0.73870823005358      0.00310171191898
  C   -1.70715365397821     -0.73881457280181      0.00216572293458
  C   -0.71099640028602     -1.70006470055073     -0.00290133729176
  C   0.68468474629332     -1.73032011692881     -0.00889028986043
  C   1.16908249160561     -3.07601852919467     -0.01219725298324
  N   1.55245117543989     -4.17164232863224     -0.01495098681789
  C   1.71516804242619     -0.76023109638100     -0.01232104410311
  C   3.04363854764816     -1.14964341637125     -0.01804439066184
  C   3.86433703858081      0.00007459713452     -0.02039916290483
  C   3.04359355338534      1.14975513895801     -0.01615332936833
  C   1.71513803952488      0.76028212511327     -0.01110051081245
  C   0.68461603004994      1.73032377826366     -0.00634007781247
  C   1.16896017160720      3.07604434626370     -0.00761227860403
  N   1.55228638014035      4.17168620409228     -0.00870122518423
  C   -0.71106463777583      1.70000419161421     -0.00059229980859
  H   -1.12875628389806      2.70005909509289      0.00169117695410
  H   3.39930374455306      2.16562441247941     -0.01680074059417
  N   5.19938325235718      0.00010508718382     -0.02570437803349
  H   5.72061549173047     -0.85754717686991     -0.02874163495115
  H   5.72058168561728      0.85778177752396     -0.02730163441520
  H   3.39938867550988     -2.16549657957685     -0.02030328136731
  H   -1.12864795618357     -2.70013872634330     -0.00192385038453
  C   -3.05273252248064     -1.13987455824364      0.00772088648113
  H   -3.39946440365817     -2.16011107769524      0.00855395391608
  H   -3.39955089172735      2.15992750432737      0.01130147243224
