28
Coordinates from ORCA-job ./opt_b97-3c_parallel
  N   -4.75664477944151      0.00004712086225      0.59323561638430
  C   -3.45188701159456     -0.00009030414606      0.27940498653341
  C   -2.67449977366934     -1.16411192585297      0.07779450834823
  C   -1.37733670432821     -0.78008007468794     -0.20832521197308
  N   -0.42521157665644     -1.63793949449570     -0.49627793629849
  C   0.88721380790954     -1.62732946080254     -0.37839811732674
  N   1.48544793845127     -2.75164243100000     -0.87309970604184
  H   2.45408031367966     -2.71039449814804     -1.12839102203908
  H   0.89322982278076     -3.40398162305377     -1.35649900707692
  C   1.74193473992976     -0.72300366300555      0.31796513113059
  C   2.91289635552218     -1.13302602628821      0.98441146735006
  C   3.60127263574788      0.00007913303001      1.42537461618995
  C   2.91298795205118      1.13296903438225      0.98369641270735
  C   1.74198499704203      0.72262619448212      0.31753268447469
  C   0.88729577483522      1.62658594921741     -0.37935542821115
  N   -0.42511794753418      1.63717722587968     -0.49721647782215
  C   -1.37728187955936      0.77953509917938     -0.20870352988226
  C   -2.67438249328494      1.16379298056787      0.07733738814591
  H   -3.02083682594385      2.18247105932887      0.13377958669059
  N   1.48559143970512      2.75058101404879     -0.87473913999813
  H   0.89338811302006      3.40257204031485     -1.35863108050994
  H   2.45417739656647      2.70902812024895     -1.13016774094628
  H   3.18273596515276      2.16001883504625      1.17589870151666
  H   4.50525891441410      0.00022876533937      2.01562296384861
  H   3.18255186083944     -2.15997546450318      1.17727508605844
  H   -3.02101172802574     -2.18274303042910      0.13473016620498
  H   -5.22349834380220      0.85555533300725      0.83095116239330
  H   -5.22361341420703     -0.85531888102118      0.83123759434847
