30
Coordinates from ORCA-job ./opt_b97-3c_parallel
  N   -0.70333896756709     -2.91989551562497      0.98044268937272
  C   -0.17676449224121     -1.66919382984197      0.56749825267024
  C   1.21861578651925     -1.65652268363368      0.31448451374556
  C   2.12602892503888     -0.70421088906548     -0.03931300084581
  C   2.14904579485190      0.76578761734666      0.05201205857167
  N   1.27195899878872      1.66766304355339      0.60855741237047
  C   -0.00655853903353      1.66111184725028      0.55252077150374
  N   -0.62849427841296      2.82285589888385      1.05570674958958
  H   -1.42289535163143      2.63200260504283      1.64990562132407
  H   0.05286813270123      3.40877450626949      1.51670214743010
  C   -0.95742146761867      0.71049473435919     -0.01569120720970
  C   -2.17080019990947      1.09518694047541     -0.62239230936069
  N   -3.03627923371928      0.04991358861944     -0.83835996266726
  C   -2.44257457105126     -1.00702935567041     -0.31994524248880
  N   -3.01177495476678     -2.22931072567613     -0.35551031086024
  H   -2.39552043944352     -3.01259689534936     -0.17723326109490
  H   -3.74101047579438     -2.34719795774174     -1.04044973978118
  C   -1.08804911905867     -0.69124466568185      0.19883560360390
  N   -2.53292147276089      2.32472792613124     -1.03056556802464
  H   -2.00623112552595      3.10478758479554     -0.66856874142796
  H   -3.49983295077035      2.46193225269658     -1.26668357695708
  C   3.39104421586244      1.16056996220962     -0.36654380315402
  C   4.17344275537362      0.00844132884395     -0.76782382206854
  C   3.44184975428282     -1.10585419628561     -0.53933043582094
  H   3.72850753265825     -2.13079552734785     -0.71895071851636
  H   5.17644277603480      0.04972969729594     -1.16467734847790
  H   3.73151563489824      2.18444791134249     -0.36011736172095
  H   1.63795077632078     -2.66209032241043      0.30608239444428
  H   0.01754773024842     -3.58971750068408      1.19910681842825
  H   -1.32664591847378     -2.83737580940224      1.77049312052211
