33
Coordinates from ORCA-job ./opt_b97-3c_parallel
  N   -0.45284068788429     -3.90672670993642     -0.97823282540477
  C   -0.25531236364027     -2.81803641088163     -0.62384597980931
  C   0.10541483864269     -1.49291912377840     -0.24680880075350
  C   1.48075548780074     -1.39099658326457      0.00849093760014
  C   2.40668091587505     -0.39989123714196      0.24994533093961
  C   2.46249337173600      1.04472921095642     -0.04325601811682
  C   3.81074783713910      1.42524733580533      0.10283096723148
  C   4.57360348326669      0.34221782769292      0.51839767321079
  C   3.74026541138781     -0.77910567222724      0.61141871799314
  N   4.14370456071314     -2.04664499582736      0.93586784990213
  H   3.50224596509864     -2.61646909187292      1.45937560807763
  H   5.08996487421045     -2.13638888417668      1.26183942950401
  H   5.62462880144915      0.36618483815123      0.76277358713323
  H   4.19343375670305      2.42980086585447      0.02081650750524
  C   1.46245041907573      1.95148920487132     -0.38668835059570
  N   1.85346892561086      3.19350088581832     -0.82036011501966
  H   1.14797925255202      3.81198508628561     -1.17639582276372
  H   2.74778930297468      3.28388424740603     -1.26371076022113
  C   0.05257182665335      1.86675815306252     -0.20216101955889
  C   -0.91046589072336      0.91756657969822     -0.01147790977890
  C   -2.27247382491879      1.35301781043462      0.16941931432223
  C   -2.71425147775905      2.67024037980605      0.25831863142452
  N   -3.09931645172104      3.76866973105554      0.32765958438122
  C   -3.10586058823324      0.23680594317740      0.18882611981009
  C   -2.29500428660433     -0.93996156762948      0.02100311737926
  C   -2.90912143125119     -2.19357744846762      0.09879370722630
  N   -3.59325275267189     -3.12885567436439      0.21339807643216
  C   -0.94807373813836     -0.56790965885537     -0.08890693985107
  N   -4.42882857309237      0.21363059700322      0.34265896626174
  H   -4.94724495250106      1.06220766367095      0.48159102959339
  H   -4.92547849744148     -0.66050526794141      0.35699667223114
  H   -0.38745874011366      2.85971542101083     -0.21903042544576
  H   1.93614001320479     -2.37590044039474      0.01044241015924
