25
Coordinates from ORCA-job ./opt_b97-3c_parallel
  N   -4.89555748989898     -0.45365398689972      0.32838798953963
  C   -3.59917617532542     -0.20984420551889      0.11781012084674
  N   -2.71112968670789     -1.21863841834164      0.19226957716873
  C   -1.49905174894171     -0.67555054654135     -0.05367212307535
  N   -0.48841184398081     -1.48547179123468     -0.19146612851774
  C   0.82515427855512     -1.36799535781774     -0.32086583761894
  C   1.74791414606535     -0.39116336784804     -0.03364316847666
  C   1.66481097019436      1.07190171176264      0.11633816559488
  C   2.99703117511434      1.47702645772701      0.23247126170421
  N   3.88100260673835      0.45645499155699      0.20498952560636
  C   3.15568760148296     -0.65973117438785      0.03498099113519
  N   3.77463560643736     -1.87095363835966     -0.06676109964141
  H   3.27468964218889     -2.67948521984981      0.25668876156281
  H   4.74366944804121     -1.85449946255318      0.20501561755251
  H   3.34157079210847      2.49771223316254      0.31999154115213
  C   0.63277263971105      1.98824016712294     -0.04369390214729
  C   -0.73230979885489      1.90193358597803     -0.23305283225078
  C   -1.65308556955341      0.85050183779527     -0.21892418248839
  C   -3.01550037717794      1.05246248929614     -0.16808621351189
  H   -3.52569546708897      2.00157356865266     -0.21837434089172
  H   -1.21513887055354      2.86995175353691     -0.31710047636101
  H   0.98869002979911      3.01392608540279     -0.00750601752145
  H   1.26582179761500     -2.30239484901212     -0.67093633430900
  H   -5.59531506525878      0.24618776955229      0.16977889396716
  H   -5.18591874660927     -1.40199330658143      0.48972666768102
