31
Coordinates from ORCA-job ./opt_b97-3c_parallel
  N   5.14596741008290      0.00586783521142     -0.72569539742227
  C   3.83983058237897     -0.02237503752057     -0.37762671193759
  N   3.15170446351105      1.09023894371595     -0.18420566753755
  C   1.87455015489377      0.68387689488845      0.16062398264905
  C   1.82343799306660     -0.81646191246341      0.22695594241681
  N   0.89236860964361     -1.67760309587326      0.68701513931625
  C   -0.39868850939330     -1.67154332909335      0.56231597714622
  N   -0.99668077698287     -2.83394805655922      1.02071122656680
  H   -1.92088754177426     -2.75416354447627      1.41110504214623
  H   -0.36246295499771     -3.42946400883291      1.52800099791202
  C   -1.31200250941834     -0.72410897231249     -0.03257973129832
  C   -2.55378043189746     -1.07876076612274     -0.57939869251696
  N   -3.36944735119440     -0.00695488132100     -0.81452526922652
  C   -2.72280244212907      1.05131478961677     -0.35175890747893
  N   -3.28501878847605      2.29375403133525     -0.44033423529447
  H   -2.63260891587376      3.06514919884815     -0.45371059082499
  H   -4.01748592616521      2.34379426735885     -1.13129002816440
  C   -1.39410559125158      0.71638577494951      0.14647022676849
  C   -0.47044274267608      1.67483968115299      0.53202167690792
  N   -0.96676604211659      2.94194108165161      0.88202565489355
  H   -0.26276256593001      3.56243304058086      1.24571205241002
  H   -1.76934192197690      2.91641604490011      1.49170359172229
  C   0.94625556588741      1.64434826403830      0.41463143788189
  H   1.39766215232556      2.63251981060325      0.42171622211595
  N   -3.05649362832036     -2.32100275877043     -0.84914950846735
  H   -3.82241436062556     -2.31598978364081     -1.50155213374116
  H   -2.38788612518675     -3.06130322715019     -0.97482132385354
  C   3.08242409734598     -1.21923347919845     -0.12533746190114
  H   3.43942177656223     -2.23620827139051     -0.13810828252873
  H   5.55645061877522     -0.81053761914935     -1.13980311137273
  H   5.51098206271355      0.89333290962617     -1.02698836108927
