27
Coordinates from ORCA-job ./opt_b97-3c_parallel
  N   -4.11725969557824     -2.93181734055530      0.55043101049785
  C   -3.52035565377498     -1.94861082777128      0.38576773451389
  C   -2.79585135537796     -0.76542800595848      0.19349837041187
  C   -3.25750795296559      0.51654118410935      0.30200000299625
  C   -2.20710423310730      1.44848656190549     -0.00695991657670
  C   -2.32558329750325      2.84301821632767      0.02953867703697
  N   -2.42906862532871      4.00073568920041      0.05827333193654
  C   -1.03712169641662      0.76069382846967     -0.31221033029529
  N   0.08470701564665      1.39268464929932     -0.61515134636719
  C   1.34850615100019      1.11302936573658     -0.47910732821972
  N   2.18021752718083      2.12656392544632     -0.87811407002669
  H   3.09619937119690      1.89654252013736     -1.22439757664833
  H   1.71597660658128      2.90427561927528     -1.31868883793477
  C   2.00304656821929     -0.05269294272504      0.06324798925992
  C   1.68711891350720     -1.43125316885226     -0.21308193611903
  C   2.89958232736906     -2.15808771051860      0.10512604497180
  N   3.83808222991617     -1.38720541951147      0.58523718339792
  C   3.32070107479351     -0.09317031789511      0.53530564420352
  N   4.14682252317086      0.91292406157718      0.88702517784909
  H   3.76005479174341      1.81051869064760      1.11953944787857
  H   4.99764222794351      0.64556425600742      1.35160053673902
  H   3.02062670486489     -3.23032275444760      0.04161968675858
  C   0.55099171751561     -2.11634477094786     -0.57268766884697
  N   -0.73987238744189     -1.80448566304695     -0.40396388976481
  C   -1.39361314335677     -0.71754303026797     -0.21348740563156
  H   0.69468102335741     -3.14678224477034     -0.88192411481797
  H   -4.25999940775653      0.80308897682844      0.57483406499690
