27
Coordinates from ORCA-job ./opt_b97-3c_parallel
  N   -5.85848484838683     -0.26747612806136     -0.26103857001559
  C   -4.71577091787583     -0.13212672446655     -0.10148803760500
  C   -3.33132895193260      0.01964227942235      0.09130792644970
  C   -2.69490650535759      1.11738403948943      0.65987151431843
  C   -1.29786962230660      0.91384903590270      0.58408345590655
  C   -0.45903564347666      1.98465856167670      0.87222635570418
  N   0.72153916343339      2.32700299759039      0.40671603769832
  C   1.73216710396169      1.69787619128485     -0.12688435187533
  C   2.81328551436204      2.40937497449460     -0.67339588061659
  C   3.86328383860082      1.52764603702974     -0.87318830259879
  C   3.49832443941102      0.22200057514744     -0.48605894151429
  C   2.16607974632200      0.21728619189247     -0.09765210918382
  C   1.44660582819482     -0.96392003197797      0.14889152753810
  C   2.29000273419989     -2.10091505157034      0.29325865478533
  N   2.94976043492234     -3.04760654444150      0.43085292101027
  C   0.05530267392693     -1.28642570834000      0.11645721185516
  N   -0.23738755293494     -2.61322930644095      0.11114114331590
  H   -1.14706768922874     -2.90753466396895      0.41269986027286
  H   0.49466135325425     -3.30030645515493      0.16273612591386
  C   -1.08187259205398     -0.43016043999945      0.02950350536398
  C   -2.34589056873976     -0.93373209729449     -0.27272728268234
  H   -2.57140923097740     -1.88515230335685     -0.72463400332067
  H   4.12686696339081     -0.64774636794730     -0.57480293673425
  H   4.83499697425998      1.79489304012767     -1.26185653081878
  H   2.82310282255221      3.47928130710508     -0.78997409291925
  H   -0.92996092494807      2.77740139759999      1.44963794983415
  H   -3.17242494177332      2.02165625285684      0.99808916991766
