30
Coordinates from ORCA-job ./opt_b97-3c_parallel
  N   -0.92554889618858     -4.26109235920080      0.12032294534536
  C   -0.54886776973162     -3.16255957535249      0.07521833541464
  C   -0.08489110428068     -1.81592452675243      0.02188007394661
  C   1.31562660698126     -1.75680104523749     -0.05072084395112
  C   2.29959530600711     -0.79235038844444     -0.06588139783328
  C   2.29902138081806      0.69343377340836     -0.01372368778487
  C   1.29065988262166      1.61737543807933     -0.08601772315208
  C   -0.10663529180662      1.59317201634399     -0.13198394416778
  C   -1.10175023700526      0.64155731146155     -0.06403652223382
  C   -1.12542393416685     -0.85604660543505      0.04108435939083
  C   -2.45852006346816     -1.23654162381412      0.11455460198137
  C   -3.28278771224134     -0.09524515920770      0.04928379593000
  C   -2.46210610099445      1.05317066845779     -0.06829647506530
  C   -2.95668309614127      2.35267895186434     -0.13681385663271
  N   -3.42152500662174      3.42092520988735     -0.19202657036894
  N   -4.61810202016246     -0.07968355697077      0.09013672439588
  H   -5.12370219251606      0.78679355280573      0.03294510433963
  H   -5.14613374048137     -0.92739401175809      0.17815617669378
  H   -2.81544545134584     -2.24965209189259      0.18928803401511
  H   -0.51851015050979      2.59316851837175     -0.21108182537678
  H   1.65196814244938      2.63960532748830     -0.13847448614614
  C   3.67516556312606      1.08850501580540      0.02274737049349
  C   4.47421239168896     -0.05791500562853     -0.04981706417647
  C   3.65073315143764     -1.17764360201349     -0.10629382886167
  H   3.98720214131234     -2.20199829652906     -0.14587040020315
  H   5.55391914045294     -0.06565533714418     -0.05177797560688
  N   4.14459232286702      2.37833629334960      0.04282279412216
  H   5.11927033219422      2.47493844291633      0.27070744169974
  H   3.58052709058119      3.05731209933775      0.52485587197057
  H   1.74564078682422     -2.75157600379630     -0.08480964287815
