27
Coordinates from ORCA-job ./opt_b97-3c_parallel
  N   -2.26929202858033     -3.51655696725542     -0.52299842431989
  C   -1.78195811118418     -2.47715726970558     -0.34961955386773
  C   -1.07961356709947     -1.25365570252099     -0.14640109931444
  C   -1.89322784215990     -0.11517725527855      0.01167760277184
  N   -3.21728212413560     -0.24880970097938      0.08685133847271
  C   -3.67269764276403      1.01388367591790      0.34378355603090
  N   -2.77566087831473      1.97543320417556      0.42070212773609
  C   -1.57218900043324      1.32848929905750      0.18886085226588
  C   -0.47598565721406      2.11517753532756      0.02353853845809
  C   0.89868593893586      1.93240860129604     -0.31934617950319
  N   1.48144332048559      3.10842672924216     -0.72317276832345
  H   0.87118100564131      3.86367157835193     -0.97685099059339
  H   2.32286115464736      3.06022212028380     -1.26634404000659
  C   1.71676044928280      0.81753722616266     -0.16075344367117
  C   3.12207191350503      0.92446959630226     -0.17590818805498
  C   3.69956148222116     -0.29652281852801      0.13378462179804
  C   2.68213164427263     -1.24272110773575      0.31792900446079
  N   2.88211508846699     -2.57467858826087      0.57595887553116
  H   3.82701985385738     -2.83652135238819      0.79630226351430
  H   2.21397794471627     -3.03206150373183      1.17193464989866
  C   1.41617215160868     -0.61263535295603      0.11757741321882
  C   0.30149425970410     -1.41822109019010     -0.01689637979811
  H   0.56216516107245     -2.47066142693745     -0.03136324785263
  H   4.75680876005860     -0.48315789422116      0.24739021251534
  H   3.68460116405532      1.83775450273389     -0.28163027774562
  H   -0.74676543076002      3.16091993235054      0.12839900777723
  H   -4.72864581098783      1.20097113578940      0.47795161010169
