34
Coordinates from ORCA-job ./opt_b97-3c_parallel
  N   -2.48793925831448     -3.13074279162232     -1.32760038297417
  C   -1.91118799308987     -2.20384963133989     -0.92229791929845
  C   -1.08606935865822     -1.15294563803089     -0.45733908743166
  C   0.27727040065244     -1.48839338584467     -0.26907297269788
  N   0.61135017301024     -2.76788895071287     -0.55885927153987
  H   -0.09804260610246     -3.45259095773562     -0.75964286000405
  H   1.54947733185819     -3.08794039133722     -0.39782065513110
  C   1.33932387568641     -0.67317539324794      0.24639503461766
  C   2.45470533006673     -1.24212630092986      0.89550604127580
  C   3.54962781601798     -0.36414483122557      0.84313696597880
  C   3.17919869370962      0.76413173423577      0.13071500140319
  N   4.00554814296130      1.85260480714751     -0.08088863159825
  H   3.51175774950395      2.71931142289003     -0.24633090445963
  H   4.72373410648012      1.95074728690057      0.61944916204592
  C   1.78078596002312      0.64349547612231     -0.22813081952204
  C   1.05751657823620      1.71836014122847     -0.73825471936071
  N   1.78783489527079      2.71116204097126     -1.41235538273242
  H   1.20943020955789      3.40306005794730     -1.85932243141283
  H   2.46905010223922      2.34562123124001     -2.05878182666024
  C   -0.28051360510993      2.08183546163149     -0.47721563102602
  C   -1.39018841302786      1.44276731554877      0.01910249777758
  C   -2.56766341635741      2.12067676738574      0.39847608767085
  C   -3.54341260468833      1.14887442387541      0.54378133251864
  N   -3.08276819070090     -0.11924745436088      0.25940853629468
  C   -1.79198455058374     -0.00454274950101     -0.01804212094745
  N   -4.84009342308121      1.27882145366489      0.89009212627728
  H   -5.15771670224885      2.11952487190027      1.33498364169006
  H   -5.33834328275659      0.43107623032195      1.09798435776539
  H   -2.67197179231369      3.18593069867398      0.52450771000794
  H   -0.45640396960600      3.13937691884554     -0.65916517939679
  H   4.50621783900926     -0.52199919582490      1.31944220632175
  N   2.53488822270059     -2.52128820403216      1.44173233225084
  H   3.33540699302988     -2.64357009642060      2.04071504717776
  H   1.69464159412761     -2.82182544916517      1.91147467901972
