32
Coordinates from ORCA-job ./opt_b97-3c_parallel
  N   -5.94584141552146     -0.23992248216940     -1.12183838334765
  C   -4.85515129990850     -0.06335203309959     -0.75511652254827
  C   -3.53468353999885      0.07259283973358     -0.31091106763751
  C   -2.83664061376238      1.26104163709653     -0.03619895180903
  C   -1.51761391796349      0.93686944599473      0.28195146618058
  C   -0.55835470722983      1.95374265964858      0.55567602118790
  N   0.67233505380267      2.06714098282409      0.09394296952791
  C   1.63117509682479      1.24446625995264     -0.19973641489213
  N   2.72051957314031      1.69027832184443     -0.86222660790659
  C   3.65900330078738      0.74306207470820     -0.72076481037433
  N   4.86074509344606      0.87083907917411     -1.27866569377219
  H   5.06024902174933      1.68274857448200     -1.83455987196446
  H   5.57093637525425      0.17289898519840     -1.15296925032556
  C   3.22862844549185     -0.37621972490568      0.06099009818422
  C   3.97392879245660     -1.52253546330029      0.31553063981355
  N   4.61761648640187     -2.47318613924446      0.52143637076689
  C   1.86352532198310     -0.15884421034686      0.31958170109034
  C   1.03292406755992     -1.09073384157068      0.89826182265137
  C   -0.35497591640359     -1.31976359699401      0.83696667926455
  N   -0.74550441397217     -2.50735545703794      1.36114307058264
  H   -0.06217541694091     -3.20281754424569      1.59841515445134
  H   -1.70729443655063     -2.80196684968978      1.26602811626678
  C   -1.38744817073215     -0.51272744941952      0.26562871733669
  C   -2.65512851131961     -1.01423962258433     -0.10457970141430
  N   -3.03237726539289     -2.36040311188278     -0.20444493191069
  H   -2.46482502814355     -2.88044344633423     -0.85991349177802
  H   -4.00320782853374     -2.45652257791513     -0.46823020758859
  H   1.57976446992075     -1.92945683716174      1.31926516479675
  N   -0.99315398497459      3.03801711480676      1.23141969281601
  H   -0.41958909099293      3.86273897651794      1.25466141838052
  H   -1.88379053222530      3.03488307807677      1.69050007181490
  H   -3.22768635735161      2.25501009994355     -0.17498856464300
