27
Coordinates from ORCA-job ./opt_b97-3c_parallel
  N   -4.97355113841255     -0.38264741774204     -0.46210005977016
  C   -3.65787039145940     -0.25048116037653     -0.23247550289465
  N   -3.15402025267508      0.93493931212878      0.13789489526252
  C   -1.81452648351960      0.74636393099831      0.27986109427319
  C   -1.48328516456788     -0.72379909969837      0.05269778977838
  N   -0.39834351963426     -1.46669747534757      0.26921285392015
  C   0.88885142646432     -1.27013677631486      0.31558654924442
  N   1.58982028394278     -2.41015483079549      0.66927093495811
  H   0.99512599899591     -3.15064240129706      1.00388993388437
  H   2.44834389858323     -2.28292766203835      1.17994296646551
  C   1.70563242211161     -0.14161490917650     -0.01413277116256
  C   1.44782772821938      1.27879944383602      0.15319863406700
  C   2.71679926177422      1.89744709007382     -0.09075163504821
  N   3.65747420451317      1.03714255429420     -0.41986907743278
  C   3.06352034093741     -0.20589865431353     -0.35884463535605
  N   3.85591240714723     -1.29432877222274     -0.60169884290280
  H   4.70770071816983     -1.06474432751243     -1.08704317859829
  H   3.39207848211897     -2.12429658830665     -0.93112026334793
  H   2.90642899293980      2.96177816033750     -0.06383507027651
  C   0.35586255839434      2.06545111840720      0.43632700823178
  C   -1.02327858012458      1.84693176756203      0.50794919138822
  H   -1.61276170140625      2.74404338868108      0.65434608169417
  H   0.61791889582484      3.11256552555719      0.55304726026433
  C   -2.68686209248492     -1.28874116384852     -0.30267313583244
  H   -2.85594851088271     -2.33470078201024     -0.49721487665315
  H   -5.53649392736535      0.44983479129693     -0.46793020130813
  H   -5.33621642420526     -1.20120953787232     -0.91260639434867
