26
Coordinates from ORCA-job ./opt_b97-3c_parallel
  N   -0.14947227702680     -4.47386352731621     -0.11595553035113
  C   0.00510969849506     -3.32453553518613     -0.06019186688337
  C   0.18841729217718     -1.91222252906846     -0.00531631723484
  C   1.50768712779433     -1.53746055714008      0.24957154862515
  C   2.19664646150357     -0.33393600947277      0.33016300622171
  C   1.91452614673702      1.04135182825240     -0.06470222715414
  C   3.12319492907156      1.72716406944278      0.11809054005940
  N   4.10087671053039      0.92421061645152      0.58784366921784
  C   3.56503586161508     -0.30007542728670      0.68352756319941
  H   4.15543102999333     -1.14883904517687      0.99730115221338
  H   3.29259287887739      2.78653706667685     -0.00967030041392
  C   0.74705709871126      1.60733272963184     -0.59622535010113
  N   -0.51431350601245      1.34702393417462     -0.23035089885050
  C   -1.23733197174578      0.32770205495516      0.03415895249205
  C   -2.65298306016597      0.50679736058617      0.32365069003722
  C   -3.26545334173869      1.75670566560708      0.45503113169733
  N   -3.75577037570143      2.80563116373457      0.56205565079645
  C   -3.24851873744239     -0.73248698011807      0.24113467282418
  C   -2.27416268652764     -1.73454265038063     -0.00582980307305
  C   -1.01657771918433     -1.17047552406375     -0.07114096649464
  H   -2.48158189185230     -2.79046524634011     -0.04881045114569
  H   -4.30702155733728     -0.91441215027550      0.34208464553250
  N   0.83932694919924      2.63465046341996     -1.45705641985303
  H   1.71360628284446      2.87004038110079     -1.88817931414355
  H   0.02165152906330      3.18279935815974     -1.66221727555553
  H   2.14863934982206     -2.38985660326789      0.44437952233787
