28
Coordinates from ORCA-job ./opt_b97-3c_parallel
  N   5.42059528130307      0.70414866317395     -0.01802123536801
  C   4.26190248252267      0.67601243425368     -0.11658960622138
  C   2.86844431677489      0.55835086886838     -0.21730822148253
  C   1.94536928672754      1.55646613565826     -0.50074967713794
  C   0.64233309289248      1.02276027287235     -0.40609463822607
  C   -0.41691501725156      1.91941104866331     -0.50557632731608
  C   -1.78143112875911      1.89644865657635     -0.28066614143290
  C   -2.69435418831032      0.90882316567042      0.04556181598665
  N   -3.97156166027962      1.27521066758688      0.26642585342866
  C   -4.67254761262405      0.12976518871817      0.46020044413297
  C   -3.90413753618533     -1.01280914048193      0.34359365645596
  C   -2.58110006482163     -0.58841848982271      0.09344079919048
  C   -1.56537220141206     -1.49374404173659     -0.10376401539554
  C   -0.15820780716640     -1.48292015763786     -0.24603747857221
  N   0.35311359930365     -2.70988877378316     -0.52418041908460
  H   1.35685959685133     -2.84230276156119     -0.55270652635829
  H   -0.23271083386226     -3.52223084434488     -0.47427550049501
  C   0.78837702682700     -0.42453659924489     -0.12947171698931
  C   2.16597424403164     -0.65654787902976      0.01558901760345
  N   2.80313568804457     -1.87321895977678      0.31152288093730
  H   2.54478450536979     -2.23709767287296      1.21899623550269
  H   3.80949881438195     -1.78438632432667      0.27823371939379
  H   -1.95135246096888     -2.50944799159654     -0.13257407334965
  H   -4.22940475130398     -2.03573792436027      0.44469204864380
  H   -5.72969158631147      0.18016116678015      0.68102992199081
  H   -2.26136824085698      2.86534225596423     -0.34714518785559
  H   -0.06487577886605      2.91468970531606     -0.75485981383039
  H   2.17525932714845      2.59309539977513     -0.67928431785152
