31
Coordinates from ORCA-job ./opt_b97-3c_parallel
  N   -1.79943885253876     -4.54813287204694     -0.28650094265394
  C   -1.86944726020849     -3.38788154222231     -0.24958090523523
  C   -1.95709362130765     -1.99112668570213     -0.21364958539910
  C   -3.09500376357521     -1.21061984168147     -0.61888512341872
  C   -2.84606817962750      0.10421604716518     -0.33961508705353
  C   -3.71154857316228      1.14796472039722     -0.69790749129727
  N   -4.45868866476838      1.97410659439487     -1.03096246541060
  C   -1.47777823303173      0.20837519775158      0.19503519601262
  C   -0.95948446256710     -1.14772079182191      0.26762869059223
  N   0.12629302580827     -1.67083732077325      0.91332435573235
  C   1.36111291882578     -1.38346823855235      0.76023967827443
  N   2.27151678943716     -2.24427940724843      1.36441404995121
  H   1.80968944994279     -2.93172819165658      1.94205363616490
  H   3.05363140696499     -1.80335255085557      1.82448638262990
  C   1.97446713405747     -0.29210555573340      0.01342597628497
  C   1.62931705921814      1.06840113355052      0.07590212487557
  C   2.82307823860341      1.76293082771090     -0.50953376683342
  N   3.75949216958651      0.92176803701746     -0.89629461695579
  C   3.27655658778098     -0.31824738242349     -0.55656728232143
  N   4.02910226513268     -1.38688972215904     -0.78939656747364
  H   3.70771271260196     -2.30161022641145     -0.51883689449971
  H   4.94589300089457     -1.26779124527145     -1.18283088890917
  N   2.92718238779319      3.07632792595943     -0.69297528297399
  H   3.71979910574207      3.43381830838407     -1.19727348393472
  H   2.15755332822821      3.69629173400223     -0.52491824532446
  C   0.51676555135768      1.77050530880377      0.47991021952298
  C   -0.85477166851859      1.40972434525356      0.50422186563201
  C   -1.67638501575365      2.54721987547188      0.77525463191446
  N   -2.23261786477679      3.51685783150257      1.08560274879502
  H   0.66758375958016      2.82838945303335      0.65129067084266
  H   -3.98601772422056     -1.60187786381497     -1.07916322812145
