29
Coordinates from ORCA-job ./opt_b97-3c_parallel
  N   4.76657699039277      1.56955570755670     -1.17606009260977
  C   3.95842559766240      0.78483506445821     -0.88753259740074
  C   2.98173055472827     -0.15242502314034     -0.54095982924853
  C   3.12340875533467     -1.53010289787952     -0.38711817882004
  N   2.01725942130984     -2.15584070244801      0.07089471747168
  C   1.06019642777673     -1.22123383089586      0.19862364360056
  C   1.67336438978100      0.14937650223507     -0.05454177325468
  N   1.31569325691906      1.33051347762397      0.31483897375107
  C   0.18225345420771      1.84036572670741      0.79456646627406
  N   0.36557529546571      2.81974670443692      1.69925962837770
  H   1.28977831256146      3.18822249451042      1.84409180203512
  H   -0.41402139427575      3.24029483242449      2.16873309344406
  C   -1.11690674138315      1.58506116343992      0.31623290229555
  C   -2.03908854735122      2.61402185105468      0.08662491713054
  N   -3.14740291277534      2.18019999428351     -0.53527958947261
  C   -3.00048804372751      0.85199755639961     -0.68116087892975
  N   -4.04347392252653      0.10705534217222     -1.21979296214490
  H   -4.78484791349109      0.72147730962267     -1.52502037410542
  H   -3.76553953628891     -0.50663367757919     -1.97312297618062
  C   -1.75679164964248      0.37357485261230     -0.18059138407972
  C   -1.51082063519942     -0.98376355907679      0.14187312825178
  N   -2.56886868638721     -1.81173421702620      0.12714743758901
  H   -2.46249283562021     -2.79493749919841      0.31025110359200
  H   -3.49728070682686     -1.43766505749793     -0.00871108061879
  C   -0.24894146166609     -1.62649994358124      0.44830102996438
  C   -0.36008704180596     -2.99565917059172      0.81274410606531
  N   -0.58747650040271     -4.09052000273656      1.12900372809635
  H   -1.87596436071739      3.66928312990442      0.24700625421326
  H   4.01691302854752     -2.09962901218967     -0.59709517578613
