28
Coordinates from ORCA-job ./opt_b97-3c_parallel
  N   -1.80958444642365     -4.30772273859328     -0.21093733944513
  C   -1.42761771830098     -3.21244764007877     -0.16070279637625
  C   -0.96107043323031     -1.86617579081451     -0.11027250273940
  C   0.41764064245401     -1.78404157583815      0.12793241341625
  C   1.37927823214172     -0.78497929892193      0.18904545743058
  C   2.71891929517563     -1.12843429339668      0.37548666882383
  C   3.54203920820656     -0.01004207908593      0.15243896240335
  C   4.93764656056668      0.05869670825801      0.24679935913601
  N   6.09181169923595      0.18436761507348      0.31538813170634
  C   2.73062376443141      1.08762100750400     -0.21500431833736
  N   3.19364851084727      2.31615034154410     -0.53475264907460
  H   2.58460561786831      3.11024917618518     -0.46281691967839
  H   4.16379225577055      2.51288476999990     -0.35522555318159
  C   1.36891485434470      0.65378694873808     -0.19019525779049
  C   0.33381766702364      1.47530507692854     -0.54386616062402
  N   -0.94912221166485      1.44703703210599     -0.20907500253420
  C   -1.88535090861857      0.60195598531732      0.01265122930932
  C   -3.21677825276015      1.05053365676968      0.36417385760373
  C   -3.55931638462622      2.38363392289542      0.61134756879560
  N   -3.83475052945298      3.49238644690048      0.82716681484075
  C   -4.06705900097157     -0.03184750418877      0.22274949402244
  C   -3.33732211406922     -1.19604066096754     -0.11484223995510
  C   -1.98788429783721     -0.90066663304959     -0.17940895735042
  H   -3.76268251501371     -2.18153843655324     -0.20254612162130
  H   -5.13753460310645      0.01018545813600      0.34979851337167
  H   0.59091990082827      2.38443899514469     -1.08433979008057
  H   3.07854497550149     -2.11704802499196      0.60889588895919
  H   0.85275535927998     -2.76258599022090      0.29288724646969
