28
Coordinates from ORCA-job ./opt_b97-3c_parallel
  N   -5.07136613734453     -1.97373465386901      0.22112790548117
  C   -4.41412076843174     -1.02348606769239      0.07789400046225
  C   -3.56925989977159      0.07811239582352     -0.07149485364387
  C   -3.86893978448925      1.33928659378171     -0.59032734716038
  N   -2.82287599001679      2.18394310877548     -0.61979043054978
  C   -1.76025029810039      1.50994490117366     -0.13635744344938
  N   -0.66287326036322      2.16760492202616      0.13316622756924
  C   0.57214065572131      1.83833927389166      0.43324107428593
  C   1.35397897786049      0.70377442950512      0.25785612893057
  C   2.76951181862481      0.84536314804802      0.17228319957186
  C   3.33107530074766     -0.43721089742257     -0.02587989059665
  C   4.69594788428782     -0.67253192128411     -0.22867262960547
  N   5.83954335353833     -0.80787946833354     -0.39432632987716
  C   2.29621115297900     -1.38467214458156     -0.01428705448147
  C   1.06658220781920     -0.74686367176390      0.15423933289959
  C   -0.10766027237108     -1.47116586021735      0.43845882566047
  N   0.03002508757823     -2.79597035364288      0.70340719235641
  H   0.91988051936772     -3.19207921472196      0.93425295596897
  H   -0.77531249458495     -3.37834157893171      0.83615602136543
  C   -1.47469563487368     -1.06530240670758      0.43416825948629
  C   -2.15828634818874      0.07742087255326      0.15693122513961
  H   -2.14464315057904     -1.90267783496433      0.60835401759546
  H   2.46482259290432     -2.43790564941839     -0.16421706877611
  N   3.49707307502050      1.99215192492880      0.25065505252766
  H   3.06473659881743      2.85389269044731     -0.02817010262064
  H   4.46617288485026      1.92616657374123     -0.01277220281187
  H   1.12766500265730      2.69713501195850      0.80881342998556
  H   -4.83895862235784      1.65880632139628     -0.94261688141461
