29
Coordinates from ORCA-job ./opt_b97-3c_parallel
  N   2.03935283683169      3.61586153460105      0.75656449101417
  C   1.59441792331181      2.55664402751486      0.58131830202542
  C   1.06421691780334      1.25335083789085      0.36154112842019
  C   2.05192348862194      0.24244939228063      0.24434360620760
  C   1.92471289007678     -1.27555123177940     -0.00977453276747
  N   0.95758133765652     -2.14330235493203      0.15852484343398
  C   -0.33531486669287     -2.09696410848990      0.41109357529323
  C   -1.33002116301521     -1.14697172308865      0.24465800134299
  C   -2.67700811205875     -1.54347606408173      0.27674009796204
  C   -3.48831457963726     -0.44595861078031     -0.01596073445843
  C   -4.88351817946489     -0.41780302280970     -0.13915599841402
  N   -6.03704490295410     -0.32954160040338     -0.26192852495484
  C   -2.65751089256070      0.69591053142694     -0.19852495793876
  N   -3.12811845617637      1.95264606051378     -0.42302950037957
  H   -4.10845096747659      2.03443466114467     -0.63507029438889
  H   -2.55079295395435      2.58609780757127     -0.94658556049330
  C   -1.30586818547365      0.30481772857361     -0.01126733512812
  C   -0.31917045247469      1.25671827639245      0.16922896639132
  H   -0.71222339560025      2.26760874168520      0.18870853233812
  H   -3.02565721876912     -2.54990098468644      0.43895979502283
  H   -0.72270125967271     -3.06510092408861      0.72650959144227
  C   3.20192306633944     -1.72482742223873     -0.35831655050556
  C   4.09697823847391     -0.66015979846524     -0.23286790608000
  N   5.41808840372299     -0.69887602130696     -0.43346452531260
  H   5.99329583767128      0.10383494868693     -0.25585401465187
  H   5.87662792399006     -1.54088437514241     -0.72904068844812
  C   3.39040276120407      0.52491428058226      0.15683413448565
  H   3.83846654389152      1.50071744778481      0.25155119040341
  H   3.44333659804217     -2.75816305959871     -0.53983745885966
