27
Coordinates from ORCA-job ./opt_b97-3c_parallel
  N   -4.70739113308257     -0.00110940749612     -0.72537023204941
  C   -3.42298146074270     -0.00081897698981     -0.35069266056814
  C   -2.65373452679450     -1.16588746789692     -0.11929265956175
  C   -1.37023435580148     -0.78515551796350      0.21728108116687
  N   -0.43406290111092     -1.64955642836755      0.54250270935256
  C   0.87984255413427     -1.63512677362959      0.45159238997753
  N   1.48100373852903     -2.73612426804035      0.97327936812879
  H   0.90153599935654     -3.43456207529795      1.40383043070575
  H   2.46365050631386     -2.72412913727483      1.16824842003340
  C   1.73650897384762     -0.71840869370353     -0.22880220510624
  C   2.91410719869496     -1.07488764163832     -0.90566889007412
  N   3.59672399499004      0.00061396463177     -1.34804079534435
  C   2.91365002929412      1.07587735790955     -0.90579347227666
  C   1.73620064976578      0.71897692954767     -0.22889005529401
  C   0.87914664553188      1.63540848382102      0.45140263038154
  N   -0.43476177477288      1.64928756889576      0.54232391067030
  C   -1.37056653953344      0.78445444408102      0.21719569764210
  C   -2.65422757917369      1.16460230263411     -0.11941555199832
  H   -2.99915448677424      2.18253808864710     -0.19342048884575
  N   1.47984329968491      2.73672562994542      0.97295080698335
  H   2.46249366347404      2.72516791853275      1.16792146086389
  H   0.90008035189304      3.43495930369589      1.40343265703966
  H   3.24183047255370      2.07957663449896     -1.13681938368793
  H   3.24271296637526     -2.07847439565624     -1.13657980457253
  H   -2.99822710560511     -2.18397714168758     -0.19319060033986
  H   -5.18487738844884     -0.85835923708780     -0.93374393732492
  H   -5.18523857139879      0.85591792998874     -0.93383105780164
