30
Coordinates from ORCA-job ./opt_b97-3c_parallel
  N   4.42194725842442      1.93545580965300     -0.75335725562302
  C   3.62537371222712      1.12058469180617     -0.50643271724766
  C   2.73931336359922      0.08444737438707     -0.22745941980569
  C   3.09395964774535     -1.29103081860253     -0.23360576235518
  N   4.30024127037937     -1.74251847933715     -0.57214483241417
  H   4.52242573168398     -2.71969904396080     -0.53472190072417
  H   5.02967162085244     -1.10131656384466     -0.83358701814178
  C   1.99274145910228     -2.08321346807327      0.16351588746506
  C   0.90048251895927     -1.26929899014617      0.39755480753689
  N   -0.26508687663188     -1.75683075539174      0.77431792860329
  C   -1.50855938921759     -1.34569727295404      0.60474337840942
  N   -2.42640659294870     -2.16921276311573      1.16649298364733
  H   -3.40867259465424     -2.00864280829911      1.01125510279396
  H   -2.11759322250462     -3.07182912227609      1.48022335121878
  C   -2.02532125239646     -0.21962181072907     -0.11535982749941
  C   -3.30322118998004     -0.15167787432051     -0.70156503429594
  N   -3.66028679580306      1.10996406648657     -1.03274800350920
  C   -2.65819696583256      1.89766998215743     -0.61211139798575
  C   -1.59824309425047      1.16099668654731     -0.05436002415372
  C   -0.43473328881782      1.74601119258608      0.49210931975530
  N   0.82225864433546      1.32747808399888      0.39302723998988
  C   1.39105379584748      0.18616998522041      0.17959585002952
  N   -0.55199901635423      2.95708951041223      1.08448690435728
  H   0.27215995262842      3.52054657347816      1.20035239920296
  H   -1.45552823237298      3.36650917778522      1.22761431477031
  H   -2.67124088057057      2.95991916707317     -0.80986879650595
  N   -4.20709572212535     -1.19731359362657     -0.89588405921108
  H   -5.00697232840820     -0.86237738445329     -1.41358692726093
  H   -3.80537011425124     -1.99813849654705     -1.36174920787973
  H   1.98235905673509     -3.15748739891457      0.24282043323351
