31
Coordinates from ORCA-job ./opt_b97-3c_parallel
  N   -4.85374093519839     -2.38257067739102      0.19043782593766
  C   -4.27758293567645     -1.38778020901969      0.00505057940900
  C   -3.55044948712815     -0.21229834280905     -0.19426987807214
  C   -4.00765981611547      1.00607373691849     -0.74996218936052
  N   -3.07611063708555      1.94370451282050     -0.79923551752466
  C   -1.92320313052320      1.37974952226917     -0.29397228199661
  C   -0.89036225402415      2.22690328294107     -0.02428482869662
  C   0.44171649144066      2.07633106758814      0.43499404988400
  N   1.00400924992071      3.23423767827979      0.86677515653077
  H   1.87938190439611      3.22468332546238      1.35351508636088
  H   0.47140205930214      4.08331932246227      0.89068492334622
  C   1.29851333566073      0.96110139461133      0.31237519935199
  C   2.67343677226758      1.17804716035647      0.09621822598017
  C   3.29448907573990     -0.04987872165967     -0.12226365318551
  C   4.62489196969505     -0.27961180323814     -0.49528679859957
  N   5.71817468629718     -0.53492663286793     -0.80086740845840
  C   2.32295272303552     -1.07570032779060      0.01904573244696
  N   2.62061433992276     -2.43867136732641     -0.06703631195762
  H   3.59060584953200     -2.60319130754570     -0.29556259041381
  H   2.03553129434355     -2.93633414159355     -0.72304641272285
  C   1.07591394705989     -0.48998721920916      0.29255207988999
  C   -0.03252049918663     -1.26095018157831      0.77999933208802
  N   0.28417462745833     -2.42144872887709      1.41226205318838
  H   -0.43184629931111     -3.10595694974493      1.57791980064482
  H   1.23925076457597     -2.74885409629218      1.40141333673868
  C   -1.40671913695114     -1.02685836694214      0.66019350742271
  C   -2.17326380441206     -0.03858489693489      0.07818358149062
  H   -2.00857220403345     -1.85637100310740      1.01960030170076
  H   3.14652200369013      2.13152238969213     -0.06363091076366
  H   -1.17165045083729      3.25796241008276     -0.21391904421334
  H   -5.00755630845433      1.19248001724507     -1.11556780804679
