28
Coordinates from ORCA-job ./opt_b97-3c_parallel
  N   -5.63962416965775     -0.20540247365987     -0.30540583290618
  C   -4.50585591396449     -0.31866618045051     -0.07269247487454
  C   -3.12508254784772     -0.37098949511337      0.16004403727264
  C   -2.40277832593327     -1.34596959322902      0.80541437744216
  C   -1.01563219375632     -1.03039904931877      0.68825253954055
  C   -0.09577823854626     -2.01917430740654      0.97201020061148
  N   1.05285404292016     -2.29613795249847      0.36947757625811
  C   1.95184094073799     -1.61900961977280     -0.25061253903589
  N   2.93648102796956     -2.31350594641584     -0.94027965013571
  C   3.86858057761334     -1.42397414398271     -1.19100880226478
  C   3.56636246396128     -0.09999456987306     -0.72212468197649
  C   2.30409352996687     -0.14852080038890     -0.20005660461972
  C   1.56120616285825      0.97536035697858      0.27185563411337
  C   2.36087671601315      2.09757098937150      0.59084092673396
  N   2.99236368530265      3.03944141601315      0.85429821547713
  C   0.17553106472594      1.21766905821568      0.22908717780770
  N   -0.21951091501891      2.51737349816651      0.35615104127116
  H   -1.14172052967763      2.70604659825283      0.70741894796776
  H   0.47593562175392      3.21529401809648      0.56349742846067
  C   -0.89819072221211      0.27490229598420      0.04661339527861
  C   -2.20493479262963      0.65334330071269     -0.29432767893245
  N   -2.65118845517498      1.80497601489020     -0.86496503911212
  H   -3.60184531329856      1.80710899061243     -1.19693397193902
  H   -2.00740961500298      2.32823521271433     -1.43260171541929
  H   4.18321957475294      0.77531174151024     -0.84291883224928
  H   4.76453958493949     -1.70441419580233     -1.72999265188831
  H   -0.43250991917724     -2.81009969269154      1.63650633533686
  H   -2.79612953781367     -2.26469773311477      1.20734095388044
