26
Coordinates from ORCA-job ./opt_b97-3c_parallel
  N   -2.34056161013343     -2.98844363243804      0.72519157771750
  C   -1.68260042493576     -2.06411080263600      0.47095218717726
  C   -0.84730223904481     -0.95092254035616      0.17873083545672
  C   -1.57551221604844      0.24636219885545      0.02444699723278
  C   -1.12195421587876      1.71051863263569     -0.11106594729725
  N   -0.03724992810361      2.33189736168596      0.24803962058859
  C   1.18149368095762      1.95631634425259      0.60093192495878
  C   1.95143954028315      0.85616834076069      0.27533768435219
  C   3.36821635610136      1.01168705190072      0.23130140561281
  C   3.91384895048716     -0.08621417602251     -0.39469945898848
  C   2.87914213006891     -1.00396639476224     -0.68022121640108
  C   1.65166368122178     -0.47949975039414     -0.26638400735665
  C   0.51103399891691     -1.30555645137819     -0.07252462543761
  N   0.75709429260056     -2.64491731056667     -0.17819961843347
  H   0.01259226068536     -3.30086518900844     -0.01666679702844
  H   1.67682367979507     -2.97069527393850      0.05432285244558
  H   3.02927620058291     -1.96063124487941     -1.15497660763150
  H   4.95558712324650     -0.22818775141777     -0.63785295207979
  H   3.88688650844015      1.90780820592583      0.53288961632436
  H   1.73398946131527      2.75635815716408      1.08925255334353
  C   -2.26478381761326      2.44055347718090     -0.50921107046718
  C   -3.34738635264478      1.58627899270646     -0.51058418832061
  C   -2.94850868723330      0.27611382898054     -0.15193927471736
  H   -3.60080856261905     -0.58033011905774     -0.12276389607145
  H   -4.36461952370161      1.86681200001107     -0.74203445891231
  H   -2.26520899124531      3.50739064659529     -0.65211399636649
