27
Coordinates from ORCA-job ./opt_b97-3c_parallel
  N   -5.18137251416936     -0.00187063888974      0.00340745874640
  C   -3.84696885651816     -0.00136470414281      0.00202719190252
  N   -3.14644538296246     -1.14469199929129     -0.16968449361714
  C   -1.85795471943455     -0.75233430938856     -0.10321612917376
  C   -1.85828707353970      0.75072620554981      0.10549463740879
  N   -3.14694684478426      1.14235303575062      0.17311849426498
  C   -0.86497639926103      1.71065797655445      0.18721824277596
  C   0.52901560952874      1.69559979733288      0.10115603732663
  C   1.51032674452214      0.74352383646844     -0.01163316582724
  C   1.51077101004633     -0.74316824977668      0.01053820563943
  C   2.89420502006574     -1.07762829115878      0.05177914651818
  N   3.69664384798269      0.00081363702538     -0.00163210342495
  C   2.89353376556286      1.07878709294387     -0.05424468344627
  N   3.45291666992078      2.32433337104506     -0.06536869067272
  H   2.94333344909185      3.05226597032073     -0.53386175649050
  H   4.43596773748668      2.32078183187032     -0.28077406025704
  N   3.45432624514777     -2.32285245174607      0.06235167268007
  H   4.43758713259309     -2.31870893798109      0.27679026295099
  H   2.94564623867754     -3.05105588160638      0.53140727921873
  C   0.52989737381915     -1.69581681182357     -0.10127560682674
  C   -0.86416455535566     -1.71169146686487     -0.18593999080081
  H   -1.28513258306762     -2.70088111355085     -0.31499165136570
  H   0.92976555444533     -2.70418746600016     -0.16047877391152
  H   0.92835114383505      2.70420385963882      0.15998284994007
  H   -1.28638659204195      2.69960090585903      0.31671991611750
  H   -5.68032617308621      0.85818648432092      0.13074915584772
  H   -5.67994481350474     -0.86077795415950     -0.13287498022355
