29
Coordinates from ORCA-job ./opt_b97-3c_parallel
  N   2.08274456224678      3.22656348880352      0.14774640738851
  C   1.44171924083141      2.25790607206101      0.13553986688881
  C   0.55472051074450      1.14322288201027      0.06624310779193
  C   -0.78346269593062      1.59002379897800      0.05123371164141
  C   -2.03666663213372      1.03260346341149      0.01303032884407
  C   -2.57799013120064     -0.33373263089365     -0.09713787687190
  C   -1.99443964308264     -1.53721132569008     -0.40182412649946
  C   -0.68740050131680     -1.98781849599250     -0.56062141860499
  C   0.59274038686227     -1.48483357050169     -0.36132313326563
  C   1.67697479275470     -2.36508254800796     -0.46732183328752
  C   2.84761830453801     -1.70408752406666     -0.11400164628608
  C   2.53301621183293     -0.32871219723473      0.19063372695040
  C   3.56236108111817      0.50440592890157      0.63466518514481
  N   4.54510667994282      1.00323684726360      1.01322870371416
  C   1.15789910386703     -0.12877909263636      0.01439850145026
  N   4.08312239733040     -2.19736892210536     -0.03338396729938
  H   4.27981979796618     -3.15762590702984     -0.24457903295689
  H   4.84539685972921     -1.60981420292020      0.26240902306734
  H   1.59463688538948     -3.40993695647287     -0.71827781720765
  H   -0.65370324710617     -3.03363829240718     -0.84499337503463
  H   -2.71231195697938     -2.33309327536523     -0.57820000207330
  C   -3.98767938234875     -0.14800877384497      0.00138706875210
  N   -4.32861316470205      1.15533647720876      0.12144798927532
  C   -3.18458281645240      1.84729137909336      0.11578162223588
  H   -3.18685576906239      2.92356493201604      0.21082285475156
  N   -4.96270225922063     -1.09597172405175     -0.07000411218840
  H   -4.75561763694259     -2.01115538267035      0.28843932057043
  H   -5.87812701733441     -0.75836105551830      0.17708021444267
  H   -0.83444519933854      2.67121094576210      0.11572948226471
