28
Coordinates from ORCA-job ./opt_b97-3c_parallel
  N   4.92962244434477      0.48360199288596     -0.42993727203394
  C   3.90157998597262     -0.01605720233673     -0.21166249628583
  C   2.75015515929759     -0.74830588560061      0.09942161365269
  C   2.86111286639607     -2.02148980863237      0.79333368715772
  C   1.63687531200374     -2.51617096877620      1.08017090999434
  C   0.65880528828334     -1.64231512881808      0.47533934228623
  N   -0.53609731911003     -2.06141205296329      0.28290737333391
  C   -1.65481934603353     -1.61546347987793     -0.31038753089078
  N   -2.27522929586827     -2.54931945171916     -1.05880115276452
  H   -1.92877979385812     -3.49197914919419     -1.06518851777357
  H   -3.03217896738057     -2.30004071095938     -1.66633836187480
  C   -2.27025539741073     -0.38964057197654     -0.06818594100026
  C   -3.65085798042916     -0.16128592740766     -0.01398436837839
  N   -3.95690072999439      1.11091982944913      0.29073135660988
  C   -2.78183915304086      1.76646237149683      0.39969573846020
  N   -2.76161219256954      3.10370482041240      0.62526279840317
  H   -1.98608014895741      3.49685846972366      1.12675039930947
  H   -3.65486245533145      3.51105426076644      0.84334464184333
  C   -1.65360276047962      0.90926893165727      0.18332105532779
  C   -0.39610583317287      1.40626008790325     -0.08691710477367
  C   0.87428031239031      0.85482758736103     -0.34281787244540
  C   1.77593071364339      1.83855757512417     -0.83796562552230
  N   2.42025188231783      2.70002401755082     -1.27601122517082
  C   1.40414069020191     -0.41719340778855     -0.03591928262197
  H   -0.37452614638190      2.48906333072948     -0.15247299828549
  H   -4.43119985511975     -0.90365076866711     -0.09956250144008
  H   1.38874853976396     -3.46825205437990      1.51600360312918
  H   3.81159117210950     -2.47773002091348      1.02226397033829
