30
Coordinates from ORCA-job ./opt_b97-3c_parallel
  N   5.80038326903347      1.86426322670541     -0.11460884742440
  C   4.69578727869399      1.51994819507035      0.00149365312131
  C   3.39245724882706      1.01927036685197      0.12657966122521
  C   2.21220824944730      1.73402688222057      0.34830202413255
  C   1.11679807740764      0.85872510608491      0.31739418338472
  C   1.66916506264621     -0.50508556518342      0.15386944467420
  C   1.06496763768251     -1.74713198224125      0.40681933626201
  N   1.86711086571691     -2.80172822044774      0.67513540388142
  H   1.47189917027819     -3.69955629914235      0.88303536158450
  H   2.85815076652056     -2.66718582621578      0.81828108972922
  C   -0.31529567769994     -2.12628768986131      0.37643978156754
  C   -1.52472720392209     -1.56333711591891      0.11641561902373
  N   -2.55297662037724     -2.49928235967595     -0.04668057033493
  C   -3.61922608742825     -1.82132883374520     -0.37586942650937
  C   -3.40499370756103     -0.40120023175717     -0.40191594870677
  C   -4.40378680685536      0.50307280729735     -0.78403492917481
  N   -5.29044733446490      1.15747265753749     -1.15431006445446
  C   -2.06674870933499     -0.19462464595794     -0.06093344815162
  C   -1.47392525358887      1.05727186657118      0.22459772941617
  C   -2.36269230029124      2.16039439364169      0.38751361982011
  N   -3.02316304368888      3.09522573004318      0.58106717088885
  C   -0.14741425594441      1.43767932079578      0.40189776754324
  H   -0.06741129524392      2.49859729646460      0.60371311955496
  H   -4.55491608082205     -2.30888344533543     -0.61032907859018
  H   -0.44683783177488     -3.19629855217646      0.49335668547513
  C   3.06932350344064     -0.34968356217713     -0.00234469237799
  N   4.01505816126790     -1.35137421725716     -0.19311133629651
  H   4.95262569495962     -0.98565456995665     -0.28466392266088
  H   3.81285106385063     -1.96214050797923     -0.97234673504062
  H   2.14409709892890      2.80336874954382      0.45599318733901
