24
Coordinates from ORCA-job ./opt_b97-3c_parallel
  N   -3.50355596108888     -1.73923486698002     -0.00213444086422
  C   -2.82279793138429     -0.55942243329113     -0.02299786980507
  C   -3.50287079253138      0.71080186776799     -0.06488366326602
  C   -2.57391335840573      1.69619695926976     -0.01323767057031
  C   -1.25517794238625      1.10622827530410      0.04362407239888
  C   -0.17033168213106      1.92967569336553      0.07910355012975
  C   1.22950788340001      1.71789830544713      0.06676292017242
  C   2.02740014383380      0.61798145208023      0.05468919503610
  N   3.40192556608714      0.86473461061913     -0.05620607304623
  C   3.97161669657707     -0.31424266958227     -0.15096980330118
  C   3.04577339982616     -1.39991569090062     -0.07856651251558
  C   1.78995911494363     -0.86147867314202      0.06496642238260
  N   0.71709523350256     -1.67687505247658      0.20913617671593
  C   -0.55786950210794     -1.45080609990179      0.21968096729968
  C   -1.43951540991281     -0.35159726879132      0.05178521193004
  H   -1.10676920990404     -2.37722743160142      0.40473581972331
  H   3.26454902238217     -2.45487595972161     -0.10325121848727
  H   5.04579340445112     -0.39879857105863     -0.25708134571943
  H   1.80978028489447      2.63266822872526      0.03375967169129
  H   -0.42938100175663      2.98281438607320      0.07972270192568
  H   -2.75507637673079      2.75890311331550     -0.03747441848647
  H   -4.57471389098959      0.83143598092587     -0.12115480432126
  H   -4.45711269488993     -1.72264612641660     -0.31687968150112
  H   -3.01124701877873     -2.57951988792965     -0.24761311502152
