33
Coordinates from ORCA-job ./opt_b97-3c_parallel
  N   -6.10101616940846     -1.14622284050011     -1.43589863262497
  C   -5.05553149047386     -0.89695067139089     -0.99392060300982
  C   -3.79671163475849     -0.59727944121661     -0.44716332773657
  C   -2.81866579966524     -1.53472202998632     -0.06200629562253
  C   -1.66304644216977     -0.84905771566312      0.32569237490183
  C   -1.95107578159318      0.56771364836066      0.21911124701142
  C   -3.27858100895579      0.68635971804700     -0.23075936302466
  H   -3.77879113376370      1.60458147173707     -0.49046428305254
  C   -1.20678354471210      1.72851626815363      0.56875763000413
  N   -1.91930626440161      2.75320772360493      1.06224500037442
  H   -1.53255785504483      3.67984903269882      1.14084083693877
  H   -2.88312270739629      2.61542465623825      1.30285532974950
  C   0.16737161682935      1.99044455218256      0.27219328627764
  C   0.54283509537211      3.35420847867979      0.38128746122058
  N   0.73262314451037      4.48816212456038      0.55106010714689
  C   1.15543102300320      1.15894812071415     -0.26326950735936
  N   2.19268116659150      1.75183162892616     -0.88600979957512
  C   3.09685668231228      0.79848927702521     -1.13876384798462
  C   2.69648938797104     -0.48343202412655     -0.62463087204495
  C   3.45060296204184     -1.64392828594514     -0.80815925365233
  N   4.14736269546911     -2.54519732174188     -1.04563816785624
  C   1.43581037074770     -0.30291630017199     -0.05966404199012
  C   0.81126488336552     -1.26088151669096      0.77182218189204
  C   1.67790544202236     -2.16461645865378      1.42976558921270
  N   2.31689268319134     -2.91666637828260      2.04587909827039
  C   -0.56861403794706     -1.53707147466741      0.93528772861318
  N   -0.89745736338311     -2.63657021210733      1.63605116254848
  H   -0.19874912896134     -3.26766385704870      1.99188695192333
  H   -1.85700465275502     -2.80504889221917      1.87256586379136
  N   4.20935194354485      1.04153773675226     -1.81660461203860
  H   4.39096175314925      1.97092543298167     -2.15369155974885
  H   4.86907674017889      0.30913362659395     -2.01296216481499
  H   -2.92453065871204     -2.60434824894446     -0.13645757394023
