31
Coordinates from ORCA-job ./opt_b97-3c_parallel
  N   -2.80063021447681     -4.27834836561872      0.15631768567983
  C   -2.64460399785884     -3.12987017345676      0.06218473630037
  C   -2.41277673776582     -1.75004934870595     -0.02638623902430
  C   -3.27218126657129     -0.80769712580933     -0.51189065311247
  C   -2.61016541868806      0.46760067681860     -0.42606243652508
  C   -3.20353377690924      1.65896404653504     -0.87579575163054
  N   -3.72333731250680      2.60457421647662     -1.30627671802693
  C   -1.32632048137255      0.30727250424352      0.09550613537945
  C   -1.14511464063591     -1.09364628566198      0.33096555554411
  C   -0.07328739820588     -1.86548038667604      0.72461091153780
  C   1.31490528656573     -1.68612935490870      0.73309267110263
  C   2.11627561444851     -0.68547484348085      0.22377431379817
  C   1.90426645588820      0.68045431785500     -0.07907143523810
  C   0.87063617405479      1.57692314701414      0.32624049375173
  C   -0.47222640577501      1.43924749100598      0.46173307910541
  C   -1.13919926042672      2.55070869824251      1.04593580560531
  N   -1.65671436130530      3.46123243041663      1.54943773701998
  H   1.23261075038722      2.56087433794025      0.61359275587005
  C   3.16014134964398      1.18850061314452     -0.51990227033605
  C   4.15922851365637      0.17035198443375     -0.53247338187203
  C   3.55878088948293     -0.97388850550609     -0.09295872644309
  N   4.11259611595036     -2.19382570950649      0.04066823730178
  H   5.03169231171736     -2.35389619891244     -0.33057154202780
  H   3.52454861401060     -3.00497296125403      0.09103757640678
  H   5.16651907259777      0.27865211249938     -0.89999756974700
  N   3.38599939279219      2.45614294752172     -0.86896458519873
  H   4.30186342569352      2.76899664260229     -1.13264044514516
  H   2.63051386867311      3.11071755647900     -0.96621606063557
  H   1.83923678778518     -2.57407297501954      1.06479811676402
  H   -0.35467967835492     -2.88664116390038      0.96144784683956
  H   -4.26547388339620     -0.96671891221080     -0.89388020584491
