32
Coordinates from ORCA-job ./opt_b97-3c_parallel
  N   -0.46492450504916     -3.89629409507127      1.06601636702243
  C   -0.26167379743395     -2.80951476934030      0.70959746135710
  C   0.10030257914333     -1.49071290113603      0.31595140708903
  C   1.46110817350215     -1.41280855485006     -0.06548897065778
  C   2.36503159491539     -0.42279752264521     -0.35637629832860
  C   2.42028950537145      0.99878624026148     -0.00609732926543
  C   1.40286727162364      1.81074797315525      0.51507362765505
  N   0.10959118030362      1.77845905910141      0.22088593921821
  C   -0.83299119749435      0.93784387437558     -0.03093190898338
  C   -2.13104204045471      1.39826848050199     -0.40222017666231
  C   -2.50246793404391      2.72015610377908     -0.64086193606705
  N   -2.86692430846952      3.80667373673157     -0.84780327632220
  C   -3.02394529834897      0.32637785064106     -0.28379526907491
  C   -2.30248171805271     -0.85928274567794      0.10674854202147
  C   -2.99447876954432     -2.06962006116025      0.19281500254533
  N   -3.73319923611389     -2.96985096602052      0.22150310942862
  C   -0.93757753744466     -0.55615425336354      0.18720095751463
  N   -4.33496041906612      0.35877692236270     -0.48750407116211
  H   -4.89425058288310     -0.46718266945736     -0.35518013678736
  H   -4.78935663495663      1.20574771558271     -0.78084035345413
  N   1.75014370691000      2.88279028443365      1.27383785550048
  H   1.02293170444069      3.51992179474998      1.54728417691556
  H   2.60185061766131      2.87265943017959      1.80144210424540
  C   3.73148650201537      1.42481585760563     -0.22755993907810
  C   4.49432434996124      0.37502839242292     -0.75115631012461
  C   3.68607063667216     -0.75766092559893     -0.83451891908122
  N   4.07658613802438     -2.00464657137023     -1.23910640256179
  H   4.99592490707704     -2.07095739081972     -1.63950450607518
  H   3.40125867529159     -2.56388738764652     -1.73033314455195
  H   5.52688097664451      0.43622956420181     -1.05833194451834
  H   4.08351501368807      2.43541621385425     -0.09073868261931
  H   1.88963422470968     -2.40672216278097     -0.14502806433614
