26
Coordinates from ORCA-job ./opt_b97-3c_parallel
  N   5.84366548945135      0.37359626546828     -0.35666298937695
  C   4.70630875123320      0.21783566958760     -0.17853337861731
  C   3.32991637652845      0.03553783915005      0.04048737737417
  C   2.70909832117934     -1.14452249149385      0.47548506102244
  C   1.32247761162125     -0.95267947843136      0.48788991834291
  C   0.51058186572847     -2.05627763761350      0.80938897541987
  N   -0.71640099085825     -2.39521462810480      0.53643946191841
  C   -1.75235259699818     -1.73683580834120      0.03576434022565
  C   -2.88655140493836     -2.40127742934239     -0.40209161117499
  C   -3.84659390035303     -1.42297909567954     -0.70349131952488
  N   -3.42642264306883     -0.17090866106502     -0.49159261988569
  C   -2.12919345433632     -0.26214558721682     -0.09422726136646
  C   -1.46065475616337      0.93449234405737      0.07933472600266
  C   -2.32024824242714      2.07177959186720     -0.01075943253443
  N   -2.87457236036112      3.09201694773996     -0.02045402707246
  C   -0.06345737807589      1.27764271260619      0.24496848371692
  N   0.17453375779408      2.58701088479982      0.44207825763058
  H   1.09451093422859      2.89870899403896      0.68699073716889
  H   -0.56318759269891      3.27077754958550      0.40684803811147
  C   1.08003638477066      0.45131814980197      0.12026077106197
  C   2.33834118409993      1.01236158456926     -0.14705604565730
  H   2.53700096070823      2.00967755257735     -0.50301068263936
  H   -4.85291644394559     -1.59637153654384     -1.05905918767840
  H   -3.00152163504883     -3.47112272435572     -0.42569518144366
  H   1.06709657070951     -2.85768419043793      1.29242409069215
  H   3.20929581582075     -2.07160311042334      0.70057082048401
