31
Coordinates from ORCA-job ./opt_b97-3c_parallel
  N   2.50477991369231      3.04480271205132     -1.23602380231267
  C   1.88014611334186      2.15731596305372     -0.81093846441281
  C   1.07284147123187      1.11637764957415     -0.30050032028303
  C   -0.29025625666958      1.35185085130753     -0.31338905259184
  N   -0.73594847468486      2.60297731490474     -0.69328805081288
  H   -1.63569503341459      2.63160715895352     -1.14196176161677
  H   -0.05490469359932      3.22545248542666     -1.09915221442987
  C   -1.34516714777204      0.46631912566044      0.12789451981215
  C   -1.59184947295554     -0.91330077589308     -0.23403766894061
  C   -2.95352205322997     -1.21468476489364      0.13979567296580
  C   -3.49540380309595     -0.12299642058974      0.75057401614144
  C   -2.53369603298943      0.93793382224342      0.71151487940802
  N   -2.82189123588951      2.20633870493403      1.14501756291299
  H   -2.03985026389947      2.82256856766274      1.29058052552810
  H   -3.54470101799581      2.28238349090869      1.83934068942287
  H   -4.46083065294884     -0.06487561062111      1.23021956341469
  H   -3.39343240522080     -2.19925074367897      0.12437456987838
  C   -0.77831180943676     -1.92123435637806     -0.74666007501170
  N   -1.36647025456656     -2.91149164067795     -1.49402032312071
  H   -2.35468014743875     -2.84770684842183     -1.66210474870764
  H   -0.99879865981486     -3.84679538302626     -1.44255357848277
  C   0.59196495347637     -2.17364825547292     -0.42621942782475
  C   1.58953940109932     -1.44310513392370      0.12741181242271
  C   2.78928147441157     -2.10348520446046      0.62851491009981
  C   3.64591478922706     -1.15139177551275      1.06495718154241
  C   3.06231356923518      0.14876474705525      0.81329670224490
  C   1.81347939817685      0.00852686920151      0.27345829891252
  H   3.55995104240957      1.09131893423480      0.98102512857716
  H   4.60566452699610     -1.31495688941547      1.53106960123852
  H   2.90124985036651     -3.17410872499546      0.69850510276673
  H   0.85572756465808     -3.21908082411111     -0.57185445014127
