30
Coordinates from ORCA-job ./opt_b97-3c_parallel
  N   -4.67319595655078     -1.96678308595169      1.61112974113373
  C   -3.97151269441049     -1.16877640330734      1.13760859719829
  C   -3.13416077980447     -0.19819530601529      0.58312083787722
  C   -3.50085660784875      1.05885795698515      0.08210635120724
  N   -2.50025226071628      1.73897757850530     -0.50154011538646
  C   -1.39101473706764      0.97564273998012     -0.36919964779186
  C   -1.78191304355910     -0.38579467823814      0.17093536124336
  N   -1.21804643304924     -1.54662460131937      0.06629501317115
  C   -0.04143569732081     -1.90447835879604     -0.44938145971721
  C   1.20156486166377     -1.34572824582660     -0.36996602137867
  C   2.37572314721409     -2.18105119971373     -0.49573814289257
  C   3.41568109557826     -1.58545408967855      0.20884600262729
  C   2.98069725152589     -0.35005777459725      0.70621889635933
  N   3.79227463697205      0.50945197755902      1.41320468269322
  H   4.65497512185167      0.10181443432852      1.73457921163508
  H   3.33357958804651      1.03143717522846      2.14364748843677
  C   1.64660039302654     -0.08938267102971      0.27428624013504
  C   1.15099652052596      1.19229928170340      0.03942151315070
  N   1.93996012798430      2.26226645332614      0.33311010958167
  H   1.63648900971613      3.17314642246433      0.03222591458189
  H   2.93673409597404      2.12655070255614      0.37521544898352
  C   -0.14708166959387      1.56759983869428     -0.51924796502315
  C   -0.19137586219093      2.88278862097281     -1.05662142381567
  N   -0.10200704176391      3.95610851679729     -1.49407672119630
  H   4.39932881823090     -2.00497564525997      0.35840824447589
  N   2.45082404285780     -3.36840478865301     -1.14340487514324
  H   3.15543787501747     -4.02543272083932     -0.85937173473692
  H   1.61304684628630     -3.78531872742775     -1.50515090473784
  H   -0.09121098011844     -2.90531733524423     -0.87428244771659
  H   -4.49305990278171      1.48481670620142      0.12560340614727
