34
Coordinates from ORCA-job ./opt_b97-3c_parallel
  N   -3.09387861490645     -4.11975600685436      1.05327939839934
  C   -3.04895148093031     -2.97983635007641      0.82308216221444
  C   -2.91544031978014     -1.62157934406891      0.51988975549281
  C   -3.88285894420452     -0.66849929807222      0.51111002538790
  C   -3.30555318279521      0.58804827880874      0.10772407406986
  C   -4.08078251807768      1.75746509074788      0.12085338176195
  N   -4.80964735532699      2.65949782150896      0.19926107160235
  C   -1.93946872217682      0.43066928175411     -0.14104182874791
  C   -1.65036692245905     -0.99716210580621      0.07678506170906
  C   -0.59996162367359     -1.79759070685316     -0.18599680635682
  C   0.74883922224567     -1.65137561451517     -0.68161088436356
  N   1.19480767220794     -2.78697319686123     -1.34327482979838
  H   0.47976346275465     -3.45432582929675     -1.58203859575881
  H   1.82438586086416     -2.62214611228081     -2.11276070371990
  C   1.63787651070861     -0.65376909252448     -0.37170404399780
  C   1.39041533806020      0.74524140555368      0.02323075479181
  C   0.32518569343390      1.60352576961665     -0.23666801731576
  C   -1.04359800696430      1.48992281628878     -0.46313051919888
  C   -1.60945287739324      2.69278121420886     -0.96812789983537
  N   -1.98029843764797      3.68818688487526     -1.43910362731921
  H   0.64529772716989      2.63876191896212     -0.30916945116726
  C   2.65212681859022      1.29633636283552      0.33781962322465
  C   3.66873606843166      0.31629972676715      0.13881287122362
  C   5.02499565683699      0.47435381212587      0.42478245672342
  N   6.15716251828839      0.60398573384134      0.66518052941664
  C   3.06863598283000     -0.86026527600173     -0.31978323542555
  N   3.74298284865513     -2.00632854400431     -0.58024478348479
  H   3.21852075185591     -2.86685775888014     -0.54266973847039
  H   4.67984275023410     -2.06577781668851     -0.21324723386247
  N   2.91124198502057      2.56566933329812      0.70514852337422
  H   2.19378898724448      3.11742351520327      1.13770440502977
  H   3.85509488632815      2.82427408864542      0.93252500943494
  H   -0.81470570105925     -2.84762964366097      0.00403629359638
  H   -4.91967066346574     -0.80260438049714      0.77077113117076
