33
Coordinates from ORCA-job ./opt_b97-3c_parallel
  N   6.21925359539309      0.08975722891111     -0.89056061863713
  C   5.13369065011431      0.22675936657218     -0.49489300161672
  C   3.80701587114551      0.31446013981767     -0.05555147895181
  C   3.19726857588451      1.34727744448832      0.62913477455841
  C   1.80970828603027      1.06396693096503      0.75230227483018
  C   1.58460819939853     -0.26833367710581      0.19547016153826
  C   0.49759326697705     -1.16929158188940      0.45650334386908
  N   0.86470562200222     -2.45671798373616      0.65471452065441
  H   1.82740173761721     -2.68200043357904      0.82622070861601
  H   0.17594562738581     -3.16590806100328      0.84138632311570
  C   -0.89144205193562     -0.90492743599047      0.47203284021141
  C   -1.68905226360016     -2.02727764240283      0.79941866969507
  N   -2.26527746257731     -2.98330458584085      1.13068352129966
  C   -1.62985494895215      0.26203602430767      0.11430432420225
  C   -1.43292485673926      1.69199412589713      0.50621705595551
  C   -2.62259212231973      2.38159820269443      0.20438619923712
  C   -3.50840245427405      1.50790633536008     -0.40401917401030
  N   -4.71854137914686      1.75598497570872     -0.91517143141804
  H   -5.25480182879187      1.01874959738450     -1.33910442079152
  H   -5.11785639414463      2.67532106223336     -0.89412961612130
  C   -2.90007946354453      0.18924296448516     -0.44381585578449
  C   -3.55199291517807     -0.88846564689466     -1.04654678836806
  N   -4.17790550460000     -1.69273611711720     -1.61002805980190
  H   -2.77878033165227      3.43539589122791      0.36727740426493
  C   -0.37337124974185      2.33798389135850      1.12010539438573
  C   0.98326088473014      2.06547579706023      1.23214505034929
  H   1.53936071838327      2.88470862614095      1.67489492818191
  H   -0.63542493459392      3.33008260566560      1.47116976019163
  C   2.81904361073327     -0.70070179502113     -0.31020075448255
  N   3.13982380496768     -1.89934180629425     -0.89780951520702
  H   2.41017599944291     -2.34922843318262     -1.42510305590590
  H   4.02985777462675     -1.91685684831772     -1.37056091551024
  H   3.66579941286132      2.27070523069876      0.92559459814983
