28
Coordinates from ORCA-job ./opt_b97-3c_parallel
  N   -5.33730764643436     -0.07838876617250     -0.20296537606848
  C   -4.17404142131786     -0.02983669961282     -0.13677057951482
  C   -2.78513779157839      0.02106896502562     -0.05900015682913
  C   -1.88927350896600     -1.11780863153780     -0.03923722446046
  N   -2.37389563262502     -2.36897714328911     -0.07825224536770
  H   -3.35190681788630     -2.51794659751323     -0.25156430736326
  H   -1.76431882576048     -3.15249404981364     -0.21780147844664
  C   -0.55569048063076     -0.69545570805749      0.05963905741428
  C   0.48144188929283     -1.67582630073962      0.23393387544999
  N   1.76428280591352     -1.72114749748098      0.26093569727511
  C   2.72198379574078     -0.75449570186064      0.09985458765617
  C   4.03472490073185     -1.15177079931784      0.04376162014575
  C   4.91492523723123     -0.01256183984550     -0.12683534108470
  C   4.15073510896415      1.09844472920682     -0.16103638013926
  C   2.73839175085182      0.71281056957460     -0.02610398026405
  C   1.79426141781945      1.69211711808781     -0.01797608332436
  C   0.38071305821308      1.71702652572640      0.05772980039445
  C   -0.58046899720073      0.74841951486832      0.06777652442038
  C   -2.00635069121036      1.15463861605299      0.03254070506498
  N   -2.46383825362836      2.41764122963621      0.01725543193546
  H   -1.87923388723649      3.17033070779683      0.32852572283468
  H   -3.45401933380810      2.56942244124099      0.10246651647782
  H   0.00643753330552      2.73381878261658      0.03604028989485
  H   2.21249095497366      2.69058821185499     -0.10054256622219
  H   4.48060585365958      2.12124865961347     -0.26381305967675
  H   5.98998085292819     -0.06271463060266     -0.20091765780461
  H   4.34089736098270     -2.18372940525038      0.12095473933688
  H   0.05559013387511     -2.66804259580798      0.40513786066570
