28
Coordinates from ORCA-job ./opt_b97-3c_parallel
  N   -4.40679015085276     -1.34245949646805      0.60341165375032
  C   -3.60146378014442     -0.52135500633497      0.43085179515977
  C   -2.67211140658647      0.51562016394796      0.29238432740054
  C   -2.91620663374872      1.87920935802980      0.73058843130013
  N   -1.88643684824755      2.66222858907247      0.60290026750413
  C   -0.87105489301688      1.87392503936721      0.05376093218657
  N   0.17875432654894      2.47562258458773     -0.38005483235751
  C   1.39775233616207      2.09341055407908     -0.75514672135876
  C   2.13504758556546      1.00743305325502     -0.34398049446374
  C   3.55737948309083      1.15810648883660     -0.17136394782130
  C   4.02390233663408      0.10434442302703      0.55085568767651
  C   2.93758736491053     -0.81431361541280      0.76724750985252
  N   3.12055218055502     -2.03164738463170      1.35535546717730
  H   3.95806038037472     -2.14967511934529      1.89823525444434
  H   2.31334813209851     -2.49027166725976      1.74252746987495
  C   1.76075646982702     -0.28974836470604      0.20499706811208
  C   0.66884442744254     -1.09930361056128     -0.25741509586387
  N   0.95015238860968     -2.41835099963408     -0.42448320993767
  H   0.24402064281862     -3.02227953314258     -0.81302148257210
  H   1.90316368165009     -2.69672649488191     -0.57556178563027
  C   -0.65482100124558     -0.69943816887680     -0.54741908641112
  C   -1.44306817688337     -1.66881345371763     -1.20866996836261
  N   -2.01125605713424     -2.49547631004542     -1.79937105041809
  C   -1.34035003393573      0.45683049426716     -0.07884441329750
  H   5.03062875733792     -0.03889511775596      0.91317150466086
  H   4.10995476891387      2.03891188452285     -0.45680587028743
  H   1.94376756054333      2.87132650762420     -1.28103123696406
  H   -3.84863495588905      2.22328804195686      1.15699043634585
