27
Coordinates from ORCA-job ./opt_b97-3c_parallel
  N   4.30166088573819      2.01382580884657     -0.77225967465144
  C   3.47924591673750      1.21936539838671     -0.54509545226251
  C   2.53859881598487      0.23349832402301     -0.26086355661414
  C   2.83818595896754     -1.05554692947188      0.29096883266968
  N   1.75141408021167     -1.80197258547047      0.51308182186665
  C   0.68551382916882     -1.05563043340112      0.13149952322256
  N   -0.47385107814804     -1.62880801703695      0.04194374872313
  C   -1.73844530710331     -1.30631431295254     -0.14688504888229
  N   -2.48268394957341     -2.33982454016622     -0.61807803691897
  H   -3.37081440622939     -2.16590528997670     -1.04857968799088
  H   -2.01068385906370     -3.20629570120169     -0.80808869231711
  C   -2.44385373905283     -0.12419672735783      0.20483002579593
  C   -3.78677278900470     -0.12484295789226      0.58582452253898
  C   -4.22866254029123      1.20562617796989      0.72869705498272
  C   -3.18619550151959      2.04896568725477      0.39293968929990
  C   -2.03445165648259      1.27555284372141      0.08537101485079
  C   -0.86154504519674      1.89523933446254     -0.32351737419140
  C   0.44995903785155      1.49747489894604     -0.54223741135898
  C   1.13998994278478      0.32217034987417     -0.29383762004954
  H   1.10221203355931      2.31375386874455     -0.83290304202884
  H   -0.99023592953955      2.96535391937410     -0.45239870802710
  H   -3.20858533468416      3.12773424638420      0.38088074242777
  H   -5.21677788244197      1.50614841539795      1.04098063725660
  H   -4.37557346038977     -1.00651248487083      0.78692336053246
  N   4.06207726158641     -1.50231913761541      0.56815940889478
  H   4.17193730687817     -2.41199906352055      0.97834884711296
  H   4.87477189055350     -0.94171375174991      0.38774879821909
