31
Coordinates from ORCA-job ./opt_b97-3c_parallel
  N   4.35177047489315      0.83908458047716      1.37717559367136
  C   3.56637672576606      0.07865574649561      0.98030327048392
  C   2.62360937067361     -0.86814523391762      0.55708448385447
  C   2.77517091301771     -2.31402736189931      0.76206510159389
  C   1.69355306299229     -2.92503621421069      0.24446062437097
  C   0.78458672033036     -1.90559874709986     -0.27564178594642
  N   -0.34331630292445     -2.26553321742938     -0.81960512616737
  C   -1.50392465855192     -1.63872743769041     -0.98933335755387
  C   -1.99683508058957     -0.52006251473204     -0.32468006186118
  C   -3.41340844105561     -0.48745729863734      0.13432880653949
  C   -3.60942641548656      0.63450136755873      0.89604660596127
  C   -2.37852261825996      1.35004671638980      0.91228534667940
  N   -2.19481928239726      2.51278467439056      1.55157399379245
  H   -1.33947923976319      3.02166850852072      1.39474819344755
  H   -2.98131960941064      3.02346225184680      1.90996980703940
  C   -1.37590546649855      0.64718300109810      0.17633757057740
  C   -0.19427152002723      1.29578103797031     -0.36219928270910
  N   -0.35508244151969      2.64528120434073     -0.64418338370999
  H   0.42978371914298      3.07935015060132     -1.10899420117662
  H   -1.23429314299916      2.88367246263405     -1.07703559191285
  C   1.02351018394300      0.70234476455622     -0.56755477750411
  C   1.99422768589588      1.44097858196645     -1.27902776153045
  N   2.74602597534513      2.09111837265117     -1.88596258741525
  C   1.42153520875925     -0.60378072200273     -0.06313455864556
  H   -4.50182413647472      0.90470040647649      1.43746767688420
  N   -4.31239527771017     -1.45548438007900     -0.15380156959560
  H   -3.97877690581551     -2.35673041706508     -0.44128788958375
  H   -5.17851360085168     -1.46967448686435      0.35427543051748
  H   -2.21921698561650     -2.23135247543841     -1.55445212558125
  H   1.46582664013154     -3.97750184480105      0.22689069196628
  H   3.62403603186113     -2.76385857310793      1.24972749181261
