25
Coordinates from ORCA-job ./opt_b97-3c_parallel
  N   -5.30448436912995     -0.00417130538649      0.08947416041567
  C   -4.14081032386298     -0.00317796100101      0.02996321080322
  C   -2.74821567303513     -0.00205967944994     -0.03253933587310
  C   -1.92015852732600      1.14325304005131     -0.06135674336046
  N   -2.38404182054609      2.40789612345633     -0.08613625660984
  H   -3.37083922930611      2.56102204618262      0.02803166658700
  H   -1.79175908307096      3.15864141515324      0.21608832451330
  C   -0.55321856490871      0.73873212536010     -0.08171912582986
  C   0.44376729350096      1.63800881040173     -0.41203700668215
  N   1.74827757484478      1.62315025751449     -0.23269953470296
  C   2.71012895690869      0.79167027744789     -0.04766978641900
  N   3.90218852191430      1.16161663352414      0.46093330360413
  C   4.54179909909817      0.00401204611380      0.68465197365880
  N   3.90406344269422     -1.15474373540863      0.46159808832649
  C   2.71139615601573     -0.78699879006639     -0.04720334746703
  N   1.75087212049636     -1.62011444294381     -0.23172192267683
  C   0.44639857497229     -1.63722578220350     -0.41113074425540
  C   -0.55204874053528     -0.73938928881594     -0.08133184400252
  C   -1.91834314044543     -1.14606901620917     -0.06077473167955
  N   -2.38021488168288     -2.41146364541657     -0.08489802031518
  H   -1.78672318540701     -3.16110695240801      0.21768912815344
  H   -3.36676039254730     -2.56610040826829      0.02940656042559
  H   0.10268052292771     -2.58024125355066     -0.83415255797173
  H   5.57113300549640      0.00494048082158      1.01804219562126
  H   0.09848567323425      2.58023887510103     -0.83553778376263
