33
Coordinates from ORCA-job ./opt_b97-3c_parallel
  N   -1.70247734351281     -4.09288574069113      1.06543862092591
  C   -1.24456235658867     -3.07892639451008      0.72517459206025
  C   -0.69724845226750     -1.83835035086576      0.30558198417530
  C   0.67108512639006     -1.89515195370762      0.02950006557974
  C   1.67148723124644     -0.98961702888250     -0.25276175181342
  C   1.81705567936101      0.45103383957133      0.02480602365192
  C   0.87644167375403      1.44448650490294      0.20101439510073
  N   1.30567434796951      2.62202243238566      0.78447141207337
  H   1.93697790343774      2.52405434082110      1.56124117306792
  H   0.62193299684582      3.35070079936737      0.90432484788266
  C   -0.49231573122809      1.51225792618969     -0.31441680289583
  C   -0.87060262674796      2.83832619748486     -0.66415966104032
  N   -1.06024780702503      3.96244781392430     -0.89424228964294
  C   -1.52405683120753      0.59768116997834     -0.40357486274671
  N   -2.74041693625452      1.07849430429331     -0.78798654172376
  C   -3.61938752226056      0.10815691959429     -0.52925382444002
  C   -3.01710181863532     -1.06786003251496      0.01135639748164
  C   -1.66162163075765     -0.83226418004605      0.04189432522877
  H   -3.51004950871234     -1.99632084519595      0.24528932472959
  N   -4.92004666863776      0.27060608687076     -0.79876021535654
  H   -5.60149570608123     -0.39771934961824     -0.49391050197847
  H   -5.23600872672111      1.16622597583548     -1.12652336176292
  C   3.23696877372959      0.71990174772172     -0.01435665264747
  C   3.91547593583070     -0.44424961457673     -0.36291116727623
  C   2.98904059082859     -1.47761067173883     -0.51152443120688
  N   3.30541930211037     -2.77830679339227     -0.77828112550810
  H   4.25454316973528     -2.96386332192001     -1.04918528351530
  H   2.63456008043036     -3.32097699211445     -1.29278002958544
  H   4.97996639615117     -0.51870519470545     -0.52773176391377
  N   3.85669321138815      1.93098240371679      0.15857869897769
  H   4.76330758133189      1.99997085568871     -0.27461078519061
  H   3.27640709585749      2.74045948867913     -0.00776272428341
  H   1.03618021155113     -2.91606125892737      0.07719242338131
