28
Coordinates from ORCA-job ./opt_b97-3c_parallel
  N   -4.00947162665860     -1.55695784220191      0.80829873804768
  C   -2.95484270320206     -1.18926206563421      0.48712448129350
  C   -1.71298365885139     -0.57364126997421      0.17711435086613
  C   -0.75428876669791     -1.44281357858843     -0.33968953278476
  N   -1.14533647797721     -2.68067602943460     -0.70581256995404
  C   -0.00367605157612     -3.34231066508340     -0.94156331456950
  N   1.13940998787256     -2.68311465601380     -0.70587543376422
  C   0.75102971695683     -1.44442264742339     -0.33972760348042
  C   1.71162179117860     -0.57729549112895      0.17699485529041
  C   2.95220561565725     -1.19556114003202      0.48685192061030
  N   4.00613265554288     -1.56547229876964      0.80779297684636
  C   1.70165461755110      0.84580487237559      0.33268419425576
  N   2.81674388501865      1.38993091546494      0.85465093153113
  H   2.84481056322231      2.37278561258099      1.04774624287736
  H   3.63777485171362      0.83884510602585      1.04242094061981
  C   0.73270906066558      1.76228618453919     -0.15146445325310
  C   1.13233002713255      3.03933690232901     -0.59560287197398
  C   0.00392467831177      3.79195732296751     -0.91195033270170
  C   -1.12603874259550      3.04173754739943     -0.59547442436021
  C   -0.72908283613716      1.76384031363312     -0.15138250143746
  C   -1.69993553299767      0.84942814578675      0.33285677166705
  N   -2.81377792309808      1.39593116639788      0.85499906234170
  H   -3.63597226954119      0.84661224433452      1.04284708564154
  H   -2.83970566091147      2.37883781290419      1.04811970992911
  H   -2.14579792086379      3.34180467345814     -0.77747433254037
  H   0.00493548050116      4.76839687097534     -1.37011308391470
  H   2.15270486399871      3.33724011243873     -0.77770704418819
  H   -0.00476356981456     -4.35235967222659     -1.32442651029516
