27
Coordinates from ORCA-job ./opt_b97-3c_parallel
  N   -4.27883893614780     -2.44113758746146     -0.13843527560901
  C   -3.56468992965548     -1.52321462114213     -0.06977880699308
  C   -2.79527875821654     -0.36361381401741     -0.01319214127726
  C   -3.29298621512102      0.96605650787876     -0.28848307854618
  N   -2.37387566187582      1.92009672164562     -0.20361875648818
  C   -1.20463108081162      1.31381647930449      0.14664624222679
  N   -0.12447327225348      2.01005178110297      0.19739050741705
  C   1.18446970901890      1.75872460437479      0.26067868633485
  C   1.94189165614085      0.66186734111544     -0.05299617606808
  C   1.67368646589932     -0.77824712913523     -0.02894880183725
  C   2.96161928357584     -1.36466648353857     -0.17187743409564
  N   3.96137501524680     -0.45766392550699     -0.30204181572071
  C   3.37653639153769      0.73971600189722     -0.21603168151331
  N   4.11584520292504      1.86401224193642     -0.28607232225396
  H   3.68321026352228      2.72749471830881     -0.55416171682137
  H   5.08182356482655      1.75099536483717     -0.53896758191347
  N   3.26616179974163     -2.67657284373200     -0.15972524498021
  H   2.56369623006729     -3.35294100533406     -0.39211246921370
  H   4.21636148901009     -2.92180449998188     -0.37428070909375
  C   0.60013044182607     -1.49052668708120      0.49131770594307
  N   -0.68434602844847     -1.24381981315267      0.59976778552269
  C   -1.45310308606970     -0.22141463912767      0.31648614340183
  H   0.85930624126106     -2.47745284474139      0.87475795576901
  H   1.74744414836227      2.64986290201418      0.53354560212592
  N   -4.55715613471515      1.22988777580954     -0.59923956754526
  H   -5.24442339079705      0.49883023068143     -0.64609561181380
  H   -4.83482243724981      2.18145520344573     -0.76412263395735
