29
Coordinates from ORCA-job ./opt_b97-3c_parallel
  N   -4.35901775391233     -3.26915838678923     -0.99927321979320
  C   -3.86837636145416     -2.24217852475753     -0.76429451890693
  C   -3.28856448147756     -0.99829200034705     -0.49549809871339
  C   -3.91199518366039      0.25836313672039     -0.53231814406027
  N   -3.12724043889924      1.26840626117392     -0.12602305001659
  C   -1.91550373367221      0.73732237911013      0.14422041353691
  C   -1.99977430343638     -0.77314460616913      0.05055625345420
  N   -1.26161798634034     -1.72357468152524      0.54191800165476
  C   -0.04324581578467     -1.77873507416152      1.03063639821807
  C   1.09835543248238     -1.04632944819347      0.73679424993564
  C   2.34295179966248     -1.69012061679498      0.88818114818966
  C   3.31760743141217     -0.94095371170466      0.24371971617176
  C   4.67210556631196     -1.25261086087230      0.06082172056679
  N   5.80276953580302     -1.44320823138247     -0.13180230236697
  C   2.71168230639918      0.24423047668500     -0.27008419594347
  N   3.43343660415159      1.23495424017713     -0.90196646620147
  H   2.98929737448152      1.64597862299188     -1.70864853083910
  H   4.39032617329470      0.98261766095107     -1.10104418750702
  C   1.33821046663123      0.24191335835572      0.06274894099931
  C   0.58172470777491      1.44084726256736      0.17783282891866
  N   1.26984861292598      2.59415389679964      0.13018204497656
  H   0.79982055692019      3.48180367717537      0.19262133137799
  H   2.27771664444301      2.58513093471311      0.12574053418632
  C   -0.85056615578070      1.61288586436981      0.31965244037500
  C   -1.26120256847654      2.97088340741020      0.44711252391977
  N   -1.44889992376326      4.10955180173546      0.57935626271996
  H   2.48548109903467     -2.66600954192811      1.32081530820588
  H   0.12844534076679     -2.65685309518964      1.64833596262537
  H   -4.93088545753730      0.44780122898046     -0.83675822728461
