31
Coordinates from ORCA-job ./opt_b97-3c_parallel
  N   3.87329572904885      3.51139138928113      0.41179683633213
  C   3.39295476536746      2.46168795220462      0.25739526225916
  C   2.90837889472612      1.16455477893303      0.09734200061264
  C   3.69512849245748      0.00162679758796      0.31708732874080
  N   4.96826513071244      0.00242850540506      0.67909361810113
  H   5.46343815810048      0.86736072863932      0.81680180182591
  H   5.46378426587700     -0.86188547568556      0.81941889600423
  C   2.90886384933259     -1.16225821155283      0.10077327137978
  C   3.39386807497315     -2.45871463740450      0.26509318017395
  N   3.87456127698820     -3.50772895194508      0.42297487827624
  C   1.60604732196399     -0.77433177535498     -0.27260534458215
  N   0.67276696802205     -1.65148858856811     -0.47494332809725
  C   -0.65027497472024     -1.64986649685116     -0.52352825954366
  C   -1.62277633504782     -0.73914218902727     -0.16506181940180
  C   -2.98583763869714     -1.14639920719234     -0.04507524757600
  C   -3.80953500653500     -0.00143835775956      0.04212356709625
  C   -5.19376008154140     -0.00182360298690      0.21109041842736
  N   -6.34925202494221     -0.00215586660643      0.35967968288284
  C   -2.98649170463660      1.14397523241276     -0.04530605020667
  N   -3.45474009617678      2.40587170698565     -0.03098624420481
  H   -2.84324439846448      3.16372685892376      0.20792274408959
  H   -4.43095173584684      2.55812691356677      0.15260499801755
  C   -1.62323437682841      0.73747491839254     -0.16564348369785
  C   -0.65151279319960      1.64851422772845     -0.52549012173321
  N   0.67154708566870      1.65114202131030     -0.47770816093161
  C   1.60553651751038      0.77500746589216     -0.27424421242975
  H   -1.03523089939038      2.60918184687457     -0.86502352564007
  N   -3.45338933524584     -2.40856184779153     -0.03078004012225
  H   -4.42957452740579     -2.56136542203301      0.15255423664275
  H   -2.84152552122277     -3.16610206649275      0.20822760133450
  H   -1.03312354054797     -2.61122083678469     -0.86211957252919
