31
Coordinates from ORCA-job ./opt_b97-3c_parallel
  N   -5.00490971224009     -0.10944727576976      0.62003524174647
  C   -3.94004228073955      0.34709147862632      0.52466202441629
  C   -2.67494431904788      0.94481081365566      0.47664522454945
  C   -2.38123360227191      2.26344978733104      0.97360228331585
  N   -1.11377987899419      2.56784351949014      0.88873279739525
  C   -0.47653475712494      1.45972519369432      0.34579868300272
  C   -1.46123880489465      0.37747175419228      0.09844728914141
  C   -1.33656422232848     -0.87530348615739     -0.56356552348279
  C   -2.42495017366215     -1.29069590658158     -1.36142197743441
  N   -3.25542829845497     -1.68922079761664     -2.07325968645372
  C   -0.32418826340326     -1.83573074931702     -0.36471237356338
  N   -0.59373165403060     -3.10073348495409     -0.74018344816597
  H   0.15235678401155     -3.76502961736654     -0.82998379421101
  H   -1.48910889018877     -3.34327452141006     -1.13197047355509
  C   0.95661034399074     -1.63475126377001      0.24597451104239
  C   1.67257431593121     -2.67188049706653      0.83636614623748
  N   2.98561400936110     -2.39360703955648      1.02511351025339
  C   3.19376572513007     -1.20065817779355      0.47811653916834
  N   4.42805766340473     -0.62837561745453      0.51514523111987
  H   4.47523466664406      0.37383610580459      0.41556614661101
  H   5.02867791799960     -1.01343150033416      1.22743454478541
  C   1.94822400765420     -0.60913074240315     -0.01474531208708
  C   1.87298712716687      0.71497059156736     -0.42757516510221
  N   2.98646466524807      1.26547625960064     -0.99124484068548
  H   2.98609088150881      2.24153705384130     -1.23807636291253
  H   3.56986783039846      0.67128530201515     -1.55346748639031
  C   0.82392388928988      1.65089272046810     -0.05530327256120
  C   1.26139006329593      3.00656290223864     -0.02745073858910
  N   1.75622915511222      4.05403101952551     -0.11205927873882
  H   1.27741325837631     -3.62848700822272      1.14551680813349
  H   -3.10176603614172      2.93908490992470      1.41184676691471
