28
Coordinates from ORCA-job ./opt_b97-3c_parallel
  N   -6.42501922515274     -0.07596023869950     -0.02000797601201
  C   -5.26391427987883     -0.06341310166870     -0.01569544455276
  C   -3.85728740502106     -0.04251924690303     -0.01032601213251
  C   -3.05314154059246      1.11931516202120     -0.00777677018004
  C   -1.70710890478012      0.75100200377649     -0.00245744113829
  C   -1.67578718467760     -0.72686986140593     -0.00168947425455
  C   -0.67335079714757     -1.67167886456932      0.00250924562184
  C   0.73011355276250     -1.68253580968976      0.00786926602129
  C   1.25295059658438     -3.01540624956424      0.01034927677897
  N   1.57115712487190     -4.13077267357965      0.01201904641079
  C   1.71997970007722     -0.68736770508993      0.01132596326896
  N   2.99058296767633     -1.11873529737893      0.01642889337988
  C   3.77562918451425     -0.02236805110073      0.01910417822325
  C   3.02511794007412      1.18219368905081      0.01572995319472
  C   1.69569397660770      0.82158572293084      0.01066953207552
  C   0.65669459071397      1.79599880180613      0.00618572543431
  C   1.14133129696088      3.13920415364689      0.00742963312856
  N   1.53912610046519      4.22986108750114      0.00836395543803
  C   -0.72874173377146      1.74146071467291      0.00085647400906
  H   -1.17007022216505      2.73127808338362     -0.00129589291331
  H   3.41824714889076      2.18406437619762      0.01688852027431
  N   5.09957135328851     -0.14682078995719      0.02432726904046
  H   5.50411951553420     -1.06744990120155      0.02631026511105
  H   5.70770317203981      0.65059877748136      0.02650749993895
  H   -1.07176887585106     -2.67926942929844      0.00138593706992
  C   -3.02177371796793     -1.15791786593719     -0.00664406150756
  H   -3.34389063328262     -2.18610815380729     -0.00743060257118
  H   -3.42379102607322      2.13135148068239     -0.00965671995768
