27
Coordinates from ORCA-job ./opt_b97-3c_parallel
  N   -5.47435480113423     -0.02155679231527     -0.83184746987102
  C   -4.34943597467133     -0.00846946708219     -0.53916266875390
  C   -2.99276477032074      0.00371494427904     -0.17505414010455
  C   -2.17602245484470     -1.13697990807299      0.01508638857616
  C   -0.87959487497947     -0.71833726440084      0.28663996152633
  C   0.15670469299702     -1.66335210463877      0.61718863906541
  N   1.40344531807797     -1.70400847527832      0.23074805633012
  C   2.25886653718413     -0.82589199919834     -0.26087977875381
  C   3.43700720504966     -1.17265198790284     -0.90423662060246
  C   4.19306591797762      0.00658203965371     -1.01248660333402
  N   3.61050530513306      1.09106944701960     -0.49000030116008
  C   2.37593259051736      0.67873390526223     -0.06828878477363
  C   1.51581797086869      1.62624046255909      0.39831825238344
  C   0.11741303848328      1.67962775242092      0.63377775416508
  N   -0.30595254312642      2.87361459156259      1.11386936883074
  H   -1.26738645961494      3.01579503450594      1.35769406818631
  H   0.31308219687628      3.66070870663219      1.17174777949627
  C   -0.88576703434049      0.73816655606573      0.30662073198650
  C   -2.21260126087077      1.14073582503362      0.03902409119613
  H   -2.55693312118866      2.15125290450852     -0.10661272328418
  H   2.01445996680636      2.58535436337424      0.49814333015643
  H   5.17486503186963      0.09163277271772     -1.45998321261324
  H   3.72999951386612     -2.17099462219564     -1.18080660876406
  N   -0.26117550585213     -2.77233393301198      1.28743164382504
  H   -1.08618608080699     -2.72808881269582      1.85526133821464
  H   0.43277269782017     -3.46627094568461      1.50507180342684
  H   -2.49955074577662     -2.15888106461755     -0.08935204325055
