31
Coordinates from ORCA-job ./opt_b97-3c_parallel
  N   -2.61895105366836     -3.80532651347288      0.42517649098177
  C   -1.90853408718290     -2.89293283603529      0.31365821690650
  C   -1.03000640659608     -1.77879451472581      0.18120436932611
  C   0.31973142350638     -2.13469949812105      0.32048586869851
  C   1.51731731082872     -1.48901824198879      0.13052459829868
  C   2.68913274629245     -2.28887334588753     -0.03763307969665
  N   3.74217898354950     -1.58679700508142     -0.41407326365626
  C   3.33357725625890     -0.28125635685214     -0.43789329698820
  N   4.27698472205903      0.67601247591570     -0.73806056661415
  H   5.11579722283451      0.26432681638215     -1.11700618529434
  H   3.95095545981884      1.46197111208594     -1.27747664313587
  C   1.97462947360465     -0.12425393244232     -0.09621887139221
  C   1.39215631567840      1.11123676372460      0.29987174865179
  N   2.27962668873617      2.09404565868197      0.60304704692583
  H   3.23229451680489      1.84854000733199      0.80935176534464
  H   1.95274626701514      2.98429634556237      0.93713651631738
  C   0.01997629287929      1.47194850172523      0.38398595996067
  C   -0.19175038635862      2.78580637245246      0.86776271329329
  N   -0.31788994962709      3.86992227502373      1.27498873549051
  C   -1.17944322304453      0.86831518304111     -0.10086653786147
  C   -2.26991397658920      1.64692161331176     -0.41834775622289
  C   -3.37547768085774      0.80433031019275     -0.72250805071808
  N   -4.57603593442741      1.23912239358392     -1.11849003472406
  H   -4.78446590846450      2.21946349979290     -1.16232842969995
  H   -5.32699827837035      0.59819774777289     -1.29782139422518
  C   -2.99552829935956     -0.53736291755113     -0.55848194404547
  C   -1.65896535403061     -0.57612108091869     -0.18089662016576
  H   -3.63107799659560     -1.39492955495031     -0.69760349165887
  H   -2.28788285822534      2.72335133536506     -0.44574191200835
  H   2.72521826412093     -3.36612269568297      0.04135953594475
  H   0.44835983520919     -3.19196569043790      0.52250022016748
