28
Coordinates from ORCA-job ./opt_b97-3c_parallel
  N   -2.33708454425610     -3.30294912086464     -0.21831104380123
  C   -1.73189201115231     -2.31026631750024     -0.17600258769644
  C   -0.85617928291457     -1.19548523316958     -0.08976088684312
  C   -1.54585341897241      0.03404486317846     -0.11383383827017
  N   -2.85267112878107     -0.00131978114010     -0.38162768046387
  C   -3.28526794066185      1.26740102238115     -0.14261169197881
  N   -2.36981956186118      2.14984787748292      0.28658793187172
  C   -1.21584722371337      1.44537483003485      0.31244623556405
  C   -0.06378319093340      2.07802640975648      0.73040577641720
  C   1.28377825214779      1.73856951013686      0.67962160414616
  C   2.00057369852592      0.64777047459275      0.25346672947373
  C   3.43292794488851      0.73746417551953      0.06503897252487
  N   3.96082436969537     -0.40200401462926     -0.37841263535636
  C   2.93295691796911     -1.28132427970661     -0.45035034956060
  C   1.69365934625936     -0.74027640402783     -0.10380061710824
  C   0.52810226947484     -1.55070437404391     -0.01905520880385
  N   0.76995846771321     -2.87892392824786      0.04873953250314
  H   0.01710200325819     -3.54577118223339      0.03216549704563
  H   1.68242745187813     -3.20896225721631      0.29313848827897
  H   3.12570803306117     -2.27225116739447     -0.83342418816834
  N   4.22988345156434      1.82070113553594      0.30183406965888
  H   5.15594372138218      1.72071353742244     -0.08059494602744
  H   3.83635260194993      2.73320841318709      0.15622016675431
  H   1.91134635959427      2.56132352968586      1.00732892988881
  H   -0.26308732247307      3.08499218516629      1.07409066137674
  N   -4.56047149504911      1.59691695660250     -0.34054452579045
  H   -4.87430444022284      2.52884428763259     -0.14460822802825
  H   -5.21321608147155      0.89731270595829     -0.64117271190698
