29
Coordinates from ORCA-job ./opt_b97-3c_parallel
  N   -4.26936440511125     -2.99529134426492     -0.21330276274479
  C   -3.66474875406811     -2.00485600907333     -0.12902117941969
  C   -2.91589283859525     -0.82671707369974     -0.02532642439029
  C   -3.44873395720571      0.47605457934484      0.01784071413664
  C   -2.41911267799876      1.38961172631359      0.14505230261596
  C   -2.53688768009264      2.78092736796444      0.21872752741311
  N   -2.57344379275780      3.94244644661946      0.28830449865788
  C   -1.15497753257967      0.67704386716409      0.16549659879915
  C   -1.50217865582705     -0.76572048868149      0.06882506582338
  C   -0.73686720724489     -1.91561880918120      0.12810873754396
  C   0.62397889779763     -2.17397559926400      0.19659501210904
  C   1.78577981989639     -1.42527584584741      0.13525263488598
  C   3.02847769129949     -2.09795577364037      0.11497490131330
  N   4.06612688067239     -1.27902576048413     -0.06201409484700
  C   3.55677881915174     -0.02991409975323     -0.13558497506087
  N   4.42253791826325      1.04846263472032     -0.31299342544687
  H   5.37369880946510      0.71162330586813     -0.37153899626342
  H   4.21131812544279      1.60471480802218     -1.13081606291777
  C   2.15027204674327     -0.00052618943889      0.01450093710179
  C   1.41248423697829      1.16944791395364      0.25318713794795
  N   2.10481693673994      2.30991323435320      0.47202004767785
  H   1.62383423604193      3.16531521500473      0.68027556835255
  H   3.10874617259388      2.27894866515821      0.59227781891666
  C   -0.00316673566200      1.39398795329126      0.27863708107289
  H   -0.21729788409730      2.45304898519439      0.38231395028353
  H   3.16392552802095     -3.16710944013405      0.18419271180205
  H   0.83675458167586     -3.23517075451322      0.27411998646658
  H   -1.33871153781146     -2.81715896458195      0.11931809759979
  H   -4.49727897162886      0.71824937857552     -0.03984754372939
