28
Coordinates from ORCA-job ./opt_b97-3c_parallel
  N   -5.06114386268685     -2.36385557895798      0.15595922352272
  C   -4.47184810456764     -1.36028583615744      0.15379985505355
  C   -3.71429732271391     -0.18621398724964      0.13753064857384
  C   -4.07606330543566      1.07509270062458      0.53401867579992
  N   -3.07237831547580      2.00389263367288      0.36743680124977
  C   -2.01545790897964      1.36545413151862     -0.10805093980725
  N   -0.95235909434305      2.08329733802160     -0.51508661312834
  C   0.31040713562816      1.86387461583070     -0.54495770636933
  C   1.15910271296625      0.80049424816402     -0.11507672610444
  C   2.53258512196299      1.01442359655211      0.04721622595150
  C   3.22762173734504     -0.24883287509611      0.12794416774215
  C   4.59048193710601     -0.41557938789071      0.36745473206939
  N   5.73019571043896     -0.54846076869199      0.56936868038195
  C   2.29094421186064     -1.25478623173473     -0.02649191439158
  N   2.54806027734906     -2.57173171032814     -0.01120412517961
  H   3.46852805047865     -2.88424345849103      0.24535800637332
  H   1.80794358688498     -3.23397937124980      0.12566131925834
  C   0.95898174680869     -0.63742980470040     -0.18853933731401
  C   -0.12869650477067     -1.42556304838273     -0.41769121548121
  C   -1.52950457142047     -1.19113006627543     -0.38675898161393
  C   -2.30867897838656     -0.09107417109772     -0.23296372450281
  H   -2.09534240069930     -2.11784346293231     -0.39414842642141
  H   0.08979120459820     -2.47745229495839     -0.55784813064902
  N   3.18332527819405      2.18679603676122      0.09501420716823
  H   4.16928182940288      2.20289040240105      0.28699983386759
  H   2.68295395678375      3.04310457149154      0.24495713115983
  H   0.86309061910296      2.68279248697723     -1.01289733703254
  H   -5.03387918062919      1.38114576947797      0.92452785152178
