32
Coordinates from ORCA-job ./opt_b97-3c_parallel
  N   -5.60483827763341     -0.70269402894893      1.39258009810664
  C   -4.52257423167483     -0.64442890174002      0.96691043692535
  C   -3.23608702731128     -0.50157859674779      0.43680912733423
  C   -2.22229954823901     -1.45935118199123      0.38189623920660
  C   -1.05100740042188     -0.86068210094878     -0.12180587904880
  C   -1.37646615995423      0.52537721936341     -0.42729268372886
  C   -0.59400195845453      1.48739883823398     -1.14825282811212
  N   0.65220449922199      1.84097946265749     -0.98228342377172
  C   1.61801960332111      1.38567389938076     -0.19299251449210
  C   2.62808304801515      2.18548814944338      0.29336651625223
  C   3.58986567589100      1.31082870579287      0.85900375141398
  N   3.26448096499436      0.00190164598388      0.74787913368783
  C   2.05749397677266     -0.03321863641930      0.16339527318138
  C   1.48489187463041     -1.26744874711266     -0.13492883984466
  C   2.38736400189696     -2.36049552482916     -0.05998662732439
  N   3.03631546659421     -3.32504816371257     -0.05840242529329
  C   0.11042896119154     -1.64300229538658     -0.32982262630125
  N   -0.10320078893833     -2.94934622565508     -0.60171573234381
  H   0.62499108647805     -3.63574724086207     -0.49582472676448
  H   -1.03675017199999     -3.26889627603125     -0.77548822029459
  N   4.73087899616392      1.65007860900696      1.45690724614934
  H   5.32372464072614      0.92270081403605      1.81744323946877
  H   4.98518688469499      2.60720291544577      1.61063963467594
  H   2.69282095816440      3.25428952195510      0.18182540757794
  N   -1.26974083514569      2.24897076805120     -2.05887018352830
  H   -0.71847862848967      2.89881599911091     -2.59274239919939
  H   -2.10560976633063      1.88468642358237     -2.48066408473774
  C   -2.73054130669739      0.71489529712393     -0.11043055550366
  N   -3.51359080495459      1.82952691482116     -0.31977548294275
  H   -4.34727238748758      1.86201476885877      0.24594235132285
  H   -3.02318643688390      2.70844127691153     -0.33506390283231
  H   -2.29722569274012     -2.44880048057451      0.80087712436091
