24
Coordinates from ORCA-job ./opt_b97-3c_parallel
  N   -6.03643899500466     -0.69596004526145     -0.52875074420586
  C   -4.90082888001569     -0.50164728977052     -0.38151143181472
  C   -3.52561631909376     -0.26600247814958     -0.20839150699173
  C   -2.53857435296987     -1.25611044540324     -0.04183839979613
  C   -1.29590168768774     -0.63672819895668      0.11160674144934
  C   -0.16484912026629     -1.39112568882174      0.43300823929123
  N   1.12455793899436     -1.15681054254584      0.35998484149901
  C   1.89829907233956     -0.12224710599119      0.21400292528317
  C   1.64674495334351      1.41603446099892      0.17048374135934
  N   0.57046472092395      2.14614843318417      0.26194276539574
  C   -0.72597906872927      1.92921317483952      0.32985121522000
  C   -1.54005621513164      0.82610573236934      0.06863398837757
  C   -2.91837405037931      0.99685829050231     -0.10736613060342
  H   -3.43181298736236      1.94304530871187     -0.14984098283666
  H   -1.28453260357913      2.83778068318343      0.54468499493311
  C   2.88401582244619      1.99279578141995     -0.15120901588818
  C   3.83737668359917      0.99962510751738     -0.30196621286046
  C   3.26512500072864     -0.27615542293469     -0.09674108281788
  C   3.94189032317870     -1.50066827290634     -0.17136546070073
  N   4.52077425737989     -2.50589687831620     -0.23876275155527
  H   4.87806217294623      1.15842890321483     -0.53811493821202
  H   3.03829105868725      3.05397625346335     -0.24612471772322
  H   -0.38669052185467     -2.41819574828421      0.71444808462993
  H   -2.71575744659388     -2.31863923246139     -0.02349594083300
