25
Coordinates from ORCA-job ./opt_b97-3c_parallel
  N   -4.31565017772769     -2.19091367311486     -0.34121207385314
  C   -3.50623871162634     -1.36408102763224     -0.21201745845005
  C   -2.61988921215621     -0.29655753496023     -0.07754976032786
  C   -2.98057906138111      1.08452988246560     -0.23194533223486
  N   -1.96100843448491      1.93659358284006     -0.06620105897688
  C   -0.86737642588576      1.19751742269023      0.21600834446821
  N   0.27216860605950      1.80195776450858      0.34830820258111
  C   1.54711760228837      1.44600618363793      0.32816722208926
  C   2.20616232731287      0.29980372085000     -0.05848461719247
  C   1.82780918244667     -1.11565760270967     -0.00370241047415
  C   3.04949359308920     -1.80115225271393     -0.10752772690838
  N   4.11235078217053     -1.00019839214709     -0.28012539342630
  C   3.62917108742875      0.25916988185547     -0.24412753364747
  N   4.46816399981381      1.31026941458749     -0.35682527077014
  H   4.12057610117079      2.19314628844723     -0.68075760924581
  H   5.41822647188124      1.09141469585587     -0.60233711758215
  H   3.17457579573205     -2.87349200600177     -0.05714938154874
  C   0.66200423717346     -1.77912950267428      0.36120617236897
  N   -0.60698333320386     -1.44047523105971      0.39361788457510
  C   -1.26287002184062     -0.31806714875389      0.23668891067976
  H   0.82017042944036     -2.82414259605220      0.62248063909733
  H   2.19786727697729      2.26699624809672      0.62833112025416
  N   -4.20165703457155      1.51718409983912     -0.51087375379210
  H   -4.96822506627469      0.87693541374118     -0.62275171140523
  H   -4.36654896423261      2.50550084450348     -0.59228495807841
