31
Coordinates from ORCA-job ./opt_b97-3c_parallel
  N   -4.13421178997446     -2.57574739405807     -0.40149589728373
  C   -3.42107925791856     -1.66764796213825     -0.23925493225562
  C   -2.59017741607765     -0.56785221291726     -0.04986918107096
  C   -2.99607695161217      0.72743946630101      0.34657069540970
  N   -1.95867169111928      1.58787043892311      0.42863827520313
  C   -0.84286263274993      0.90217377204076      0.13408064829697
  C   -1.17805312249373     -0.52316498352665     -0.17343153465143
  C   -0.46393084755042     -1.59180539506247     -0.65804823316652
  C   0.88942009755257     -1.96764647729391     -0.62577552956152
  N   1.15136977903085     -3.16053119821460     -1.22104407491041
  H   2.09152592380572     -3.50042161047063     -1.28043204378656
  H   0.41074458987373     -3.77826246878226     -1.49730451923611
  C   1.97174111483902     -1.35509109077818      0.05152658294617
  C   2.30828070569721      0.03958617343761      0.29977091406024
  C   3.57518240632607      0.03759782878591      0.92195114453257
  C   4.00098203896161     -1.27770504728355      1.10184809901405
  C   3.05308450788533     -2.12377143633356      0.53602649400142
  H   3.08001129383125     -3.20146714400065      0.57698155173380
  H   4.88821426700632     -1.58621789523719      1.63237148590881
  H   4.07564227909451      0.91143000160895      1.30844205804484
  C   1.70989048336839      1.27440025724445     -0.08074318724001
  N   2.58147625828694      2.27228097403543     -0.33677435016326
  H   3.55616788290456      2.06198636389276     -0.42995715543051
  H   2.28210462627378      3.22800746166271     -0.43027527574348
  C   0.33053206944736      1.64397854284727     -0.07265398274228
  C   0.10146617616359      3.04000937926592     -0.19725210369186
  N   0.05124282425781      4.19254768834721     -0.34249575446915
  H   -1.10760820897722     -2.36784178383664     -1.06175848797570
  N   -4.23391221084701      1.12544977380018      0.63746980177510
  H   -5.01454334796802      0.49933565895633      0.56540661372487
  H   -4.39223806921841      2.08306764768379      0.89401531142715
