30
Coordinates from ORCA-job ./opt_b97-3c_parallel
  N   -1.09533865520848     -3.95368199418019     -1.33783954796210
  C   -0.70725729751137     -2.94660501345458     -0.90068849649479
  C   -0.17987403234383     -1.74290799385055     -0.38051246916326
  C   -1.15810921512125     -0.85289044575903      0.14463417413915
  C   -2.42573093200243     -1.26702203882203      0.47793901139487
  C   -3.17848959875148     -0.09612906410764      0.76299574963794
  N   -2.47390793125141      1.03646712281653      0.57771160075517
  C   -1.23861904793094      0.66194170673210      0.20357660788982
  C   -0.38809185231215      1.65916752261997     -0.27714212895992
  C   -1.03231982450915      2.88949845462996     -0.57049580474226
  N   -1.43135519345042      3.93732868541964     -0.87765732815377
  C   1.03948879169233      1.69606489093371     -0.39781656314187
  N   1.56508637858118      2.80584532379889     -0.94569000971289
  H   2.55931514991050      2.87583963757748     -1.05576503911680
  H   1.00171367392436      3.61693155063184     -1.14262563142532
  C   1.96614748118055      0.78030443648454      0.15182342137351
  C   2.02125468659280     -0.65310062040193      0.27342581024710
  C   3.24541567090856     -0.90474148348040      0.91291682703541
  N   3.90188535012118      0.22775852743282      1.24182885810953
  C   3.17169281743110      1.23149824407663      0.74588537002433
  H   3.44532267535184      2.26093496096316      0.92981471102390
  H   3.63060210364055     -1.87070114360493      1.20558153509893
  C   1.22703746895079     -1.69568248550359     -0.28843231172481
  N   1.91279634637328     -2.79227096052110     -0.67540761695622
  H   2.90709635745652     -2.73740032543788     -0.78633178497990
  H   1.44385119343672     -3.62612509268318     -0.98542002047106
  N   -4.43765332885691     -0.03922209284326      1.19174327739608
  H   -4.98568018176564     -0.86604921170145      1.33595898177072
  H   -4.85519285708436      0.85870081099226      1.36383539374412
  H   -2.77406390765525     -2.28509051295704      0.52030899426658
