27
Coordinates from ORCA-job ./opt_b97-3c_parallel
  N   -3.71625804595224      2.41901855447298      0.01066228972751
  C   -2.71165032933642      1.83508944743563      0.00705866040687
  C   -1.38776773527725      1.31075413525402      0.00369535970607
  C   -0.39037133420217      2.30959100143650      0.00468564076575
  N   -0.81199344789556      3.60182679952148      0.01107421221866
  C   1.02584639255210      2.20514365204371     -0.00053165705877
  C   1.99196196872297      1.24521743132762     -0.00307178935224
  N   3.28334168897992      1.74999246624884     -0.00610514511288
  C   4.09253702466180      0.70228820633177     -0.00543683621473
  C   3.41012761230576     -0.53057168172599     -0.00226105123920
  C   2.05186743807285     -0.24245686515664     -0.00105649538871
  C   1.05454122789206     -1.23885328327537     -0.00026027521496
  C   1.56958450156838     -2.57206612283469      0.00096401931636
  N   2.07327412884959     -3.61684790878956      0.00229719422124
  C   -0.34142287687499     -1.18821333627751     -0.00178962379500
  N   -1.00528963891399     -2.36621497572286     -0.00418213907204
  C   -2.30108268820306     -2.02873067057028     -0.00506928199881
  N   -3.28263779991007     -2.93082029289559     -0.00803285519577
  N   -2.56678032711943     -0.69559461151034     -0.00291940174446
  C   -1.36791872260251     -0.10408528959958     -0.00087127307660
  H   -1.78885904370007      3.83758641512401      0.01130693264468
  H   -0.14904976944254      4.35218188771569      0.00764221166246
  H   1.50736356608481      3.17659049314060     -0.00191450087625
  H   5.16509921615228      0.83859723842417     -0.00724706717931
  H   3.85219714090629     -1.51176140817605     -0.00153380271229
  H   -3.06285919364927     -3.90913598970710     -0.00884942091944
  H   -4.23888629776923     -2.62989378113545     -0.00793041351816
