22
Coordinates from ORCA-job ./opt_b97-3c_parallel
  N   2.99227379119443      2.82665629387537     -0.69713236783517
  C   2.47658043629586      1.79743770162953     -0.52869326545855
  C   1.99199012067499      0.50816897275987     -0.30129972717917
  C   2.82021347617166     -0.55542458256177      0.19293402748257
  N   4.12729147018659     -0.42398299834758      0.40909787925189
  C   2.04090125794125     -1.70469193191100      0.38334937733594
  C   0.73261324910738     -1.44315328758663     -0.01054792272753
  N   -0.13497049257738     -2.39963449564323     -0.23487919062483
  C   -1.42636934082446     -2.38812979792833     -0.49097405848672
  N   -2.39718140239707     -1.61891101333418     -0.04493980840621
  C   -2.48794076135884     -0.34663565031306      0.20139762266778
  N   -3.60693959053302      0.19450529232856      0.73039274251806
  C   -3.46560405313410      1.50546566971517      0.49182099354799
  N   -2.33274593736698      1.93799381153698     -0.10593273246535
  C   -1.59452167278642      0.82752335150214     -0.24648767925689
  N   -0.31060457694730      0.92554057998961     -0.51204968162623
  C   0.66546473169489      0.06424006733425     -0.35835953657720
  H   4.59225607447488      0.44866364681778      0.22433238172300
  H   4.67029388969419     -1.17020461602212      0.80258382241122
  H   2.40533004178795     -2.67883073249058      0.66431617458641
  H   -1.77495429888173     -3.26209046831172     -1.03575150934298
  H   -4.24172862061678      2.20554001786375      0.76778948116371
