32
Coordinates from ORCA-job ./opt_b97-3c_parallel
  N   -5.37953176715476     -0.30642258079972     -0.01200320465570
  C   -4.22119162142257     -0.17346624283804     -0.02882095363617
  C   -2.83613796194197     -0.01860248322532     -0.04599262509397
  C   -2.13354877616712      1.09284144852893     -0.54310814421487
  N   -2.73439594863023      2.20835688418114     -1.02644329874548
  C   -0.73550840689108      0.89492461848210     -0.29289339113737
  C   0.07952000354008      2.00480607954134     -0.19755403217782
  N   1.21104538018124      2.23680002019167      0.44168112548988
  C   2.24465215288402      1.46435375547239      0.68235376459859
  N   3.14401265339678      1.97412839660903      1.55968434546714
  C   2.62869178283928      0.25424134727306      0.01547845543964
  C   3.94864186349336      0.02228002220944     -0.39750453980034
  C   4.02607246078446     -1.25285639501452     -0.97785727651361
  C   2.77772757380357     -1.84805733626689     -0.87381356370628
  C   1.86691062560003     -0.93262283222179     -0.27051741879213
  C   0.55175083539620     -1.30746206283765      0.11168185823908
  N   0.36685595722009     -2.65427664829393      0.33008841469731
  C   -0.58096566542875     -0.47522998037375      0.22811457390711
  C   -1.89216093741389     -0.95845345894029      0.45005460143948
  N   -2.27869925696863     -2.17770169888482      0.94347357229351
  H   -3.72082589945423      2.14969827598148     -1.21310913212353
  H   -2.22561523124924      2.78171960764470     -1.67405357243288
  H   -0.35840668876192      2.92509945786148     -0.57859788781573
  H   3.84599876749464      1.37915749023748      1.95530809350280
  H   2.93734850328799      2.85353148353611      1.99985621096158
  H   4.74492950864337      0.74947854869936     -0.34738276125421
  H   4.89553496774376     -1.68131217700293     -1.45181930549301
  H   2.52012693165401     -2.81275931798056     -1.28592657289702
  H   -0.49711369396804     -3.06814256417543      0.01454303744685
  H   1.18102665954139     -3.22510877834786      0.18925977477478
  H   -3.25981552573401     -2.25205236968362      1.16340225732955
  H   -1.68561030731819     -2.56532354066213      1.65961680370254
