31
Coordinates from ORCA-job ./opt_b97-3c_parallel
  N   4.44509306674608     -2.21345103502112     -0.03382988280416
  C   3.59731235815682     -1.41292034589477     -0.02375120341175
  C   2.60245754058143     -0.43731152955264     -0.01101059575665
  C   1.19407267380864     -0.66459390516313     -0.01356935662381
  C   0.71395804958647     -1.95573847743980     -0.02933733397176
  C   -0.53865152090737     -2.58120748697103     -0.03098313805759
  N   -0.47929356637626     -3.96934625680017     -0.09626129591863
  C   -1.84180748922115     -2.06409595810079     -0.03316028576500
  C   -2.41801982701673     -0.81348413328637     -0.01776221670167
  C   -3.81191151471658     -0.67771444571271     -0.02493985569894
  C   -4.15627888251237      0.68390540611022     -0.00781684526124
  N   -5.41372746138877      1.18305808438506      0.02775062741537
  C   -2.97351039445228      1.45020049723049      0.01630214855699
  C   -1.86776358754280      0.60313513919430      0.00714851399833
  N   -0.66431931272992      1.13775829517840      0.01559990154714
  C   0.56284311004541      0.68260618129507      0.00763901936340
  C   1.62920311034957      1.62980502822311      0.02019630049386
  C   1.50583896679549      3.01939292338323      0.03138428642118
  N   1.49214101477635      4.18377030904862      0.03723706957723
  C   2.86458753109011      0.95252921023784      0.00930243052536
  N   4.07685737812219      1.52251897405163      0.04276440660891
  H   1.52481919278565     -2.67802081467000     -0.04654323736601
  H   0.38595878333860     -4.39735692906799      0.18404419247792
  H   -1.28556855213663     -4.47224573846625      0.23050443017907
  H   -2.59261386302323     -2.84950797945888     -0.05889285090367
  H   -4.51070366888758     -1.50067255795323     -0.03942025888986
  H   -5.55464056412992      2.15816591060743     -0.16390319228892
  H   -6.18532651661138      0.58269993475662     -0.19974386563424
  H   -2.89820780835876      2.52502298956471      0.03612963579812
  H   4.16581806406165      2.51867111352191     -0.04665022801131
  H   4.90311040466717      0.96494259516616     -0.07607043559912
