31
Coordinates from ORCA-job ./opt_b97-3c_parallel
  N   1.89492530927640     -3.51989102394987      1.25085242177360
  C   1.56527960149369     -2.46043078943645      0.91159274889397
  C   1.07815540402673     -1.16897389525120      0.55524447296955
  C   -0.33281207177781     -1.08569075735926      0.43158197521368
  C   -1.10713986445090     -2.23518228251628      0.45667952465014
  C   -2.37376549774295     -1.96198014670128     -0.10515096437792
  N   -3.35104945258231     -2.84851227853166     -0.30942154070002
  C   -2.44199663085784     -0.59180387114997     -0.44835828650060
  C   -3.60037474882598     -0.06871219677346     -1.02375862790691
  N   -4.61493085400480      0.18547593147625     -1.53733981512434
  C   -1.23413399452868      0.03235930727911     -0.01841511531346
  C   -1.12611303590783      1.39105254116408      0.20760887175672
  C   -2.24605960191091      2.22307047153791     -0.03460157064593
  N   -3.10569876788939      2.99562689382641     -0.16353216660200
  C   -0.01819397984418      2.13650366057410      0.80451083672372
  N   -0.36440528410980      3.07810400860455      1.71750878993461
  N   1.23691650825664      2.09668424783270      0.48076774931739
  C   2.04875926208802      1.20112495796319     -0.05750412059976
  C   3.26139229012012      1.50835811651333     -0.64701214971190
  C   3.97046297558766      0.28705762618730     -0.72163610858496
  N   5.20506966005161      0.09267448874955     -1.19693093540272
  N   3.28182105215942     -0.76600370502160     -0.21463579438636
  C   2.07682086673655     -0.28807093307178      0.13293956344959
  H   -0.74858623642910     -3.21776314010541      0.71226086583610
  H   -4.21440066880237     -2.56512590795016     -0.74045370242840
  H   -3.26342695383599     -3.80012991768005     -0.00711803383613
  H   0.32406099905109      3.78201781323600      1.92149269796140
  H   -1.32876660980555      3.33436995238250      1.83567928011043
  H   3.62550037476987      2.49769211871985     -0.86582213169286
  H   5.56867623324319     -0.84385861599319     -1.21644385485293
  H   5.68993889394549      0.80763911074428     -1.70473127522501
