25
Coordinates from ORCA-job ./opt_b97-3c_parallel
  N   -4.63336283084804     -1.21668653466839      0.90618894227852
  C   -3.56097740307657     -0.85303767506106      0.64545645978103
  C   -2.22564465101048     -0.54771604463205      0.28124541539117
  C   -1.45552224603768     -1.68158002546683     -0.18371553594233
  N   -2.14797984718587     -2.69019324583003     -0.74279693882226
  N   -0.17504190635681     -1.92382895036158     -0.02428398709237
  C   0.93797548114366     -1.26706874320690      0.08312086895037
  N   2.05759976143835     -1.93317113384348      0.42552269442229
  C   3.08223619453877     -1.08359971518893      0.25315398862641
  N   4.33104852433574     -1.43709353820805      0.52334482314249
  C   2.67896267766739      0.20139849909492     -0.24451578249672
  C   3.55326674229489      1.25820075501041     -0.49552532020195
  N   4.36548455563439      2.07000024272908     -0.68213012176599
  C   1.28349426010819      0.17681546436418     -0.29110987471528
  N   0.58145705619336      1.26065392223420     -0.52588295525984
  C   -0.66997928742728      1.55576367813797     -0.27582503524068
  N   -1.05768179554875      2.84629046554156     -0.37290296739936
  C   -2.29460363003599      2.87076018897798      0.14138903929999
  N   -2.82513746057005      1.70779340330348      0.55922422764148
  C   -1.87785150399560      0.79342816142513      0.27285706506349
  H   -1.67531832087068     -3.56569929935777     -0.88407581436250
  H   -3.15055725238989     -2.66555185780122     -0.80753363946428
  H   4.51673628987269     -2.35522950891363      0.88760227249722
  H   5.09601885850740     -0.80305795723555      0.37310534950963
  H   -2.84794455778185      3.79500712585715      0.22748979745935
