31
Coordinates from ORCA-job ./opt_b97-3c_parallel
  N   -4.49116988815794      0.85953245482460      0.34413349687322
  C   -3.50386277969216     -0.05092846669844      0.04872333669347
  C   -3.72652150033382     -1.39815594495905     -0.28201326410826
  C   -2.48758607830327     -1.99781627288456     -0.45660834862405
  C   -1.44861981159009     -1.05573644469482     -0.26891899129460
  C   -0.12193713515673     -1.47281050102493     -0.21193225194945
  C   1.09200257248341     -0.84661538147468     -0.01413638598210
  C   2.29666636529166     -1.61888629218196      0.08729495672712
  N   2.36034200616461     -2.99003801872284      0.12069668971661
  C   3.40418388273474     -0.77662917542096      0.07215243379374
  C   2.95129126460131      0.54164233919684     -0.04932492510802
  N   3.78988228780376      1.62251563421977     -0.10116000509385
  C   1.51585361046172      0.55577816497391     -0.08101699613564
  C   0.76237801379730      1.72925776819023     -0.14926313336874
  N   1.41215652352413      2.87273306161580     -0.64269575284354
  N   -0.44269516423388      2.03991437307616      0.32486254663223
  C   -1.58557793538173      1.42879251438407      0.48031646120876
  C   -2.09536534908977      0.20140949889788      0.06254464173781
  H   -5.41854168424506      0.58795348358238      0.06603041942758
  H   -4.29747009552271      1.81952690404025      0.11933759464402
  H   -4.69225919137561     -1.87113618011389     -0.37650174494947
  H   -2.32085294274498     -3.04204988411975     -0.67922140544257
  H   -0.03795350582352     -2.54641135480444     -0.35734112665981
  H   1.59109103241618     -3.45590870147168      0.56999772746521
  H   3.24731995821124     -3.36926801460674      0.40392261841135
  H   4.43825312900669     -1.08023746230499      0.14105823200914
  H   3.35738135864981      2.51188867341590      0.10666795602080
  H   4.69017240927349      1.48677114053770      0.32773055884351
  H   1.89599004025705      2.73161431905664     -1.51656849291393
  H   0.78100867020067      3.65880965810460     -0.66995302009895
  H   -2.30627640072598      2.05605204206773      1.00756923816758
