25
Coordinates from ORCA-job ./opt_b97-3c_parallel
  N   -0.96296210826014      3.45282830124942     -0.02677249356032
  C   -0.72641807542451      2.08358159787702     -0.03744003729088
  C   0.64722866882733      1.74628403545585     -0.10651216565877
  C   1.37131897613520      0.58635064059139     -0.05669818469794
  N   2.73446213288392      0.70820810507279     -0.11287092331113
  C   3.24288006885974     -0.52341915154018     -0.00359846512021
  N   4.58198001542549     -0.71949845876536      0.02368255349223
  C   2.24073080914087     -1.51699158047450      0.12093748244390
  C   1.02017907188115     -0.86152617459437      0.08136023484455
  N   -0.11037679198931     -1.57053855595074      0.13405197345108
  C   -1.36301324964970     -1.23271301251131      0.06824562970085
  C   -2.35227534551482     -2.25048595506829      0.07542665845145
  C   -3.60069979827020     -1.67988605023263     -0.06405630222615
  C   -3.48676534204624     -0.27803424234360     -0.14506515745912
  C   -2.14981568238451      0.10150357476959     -0.06447855538295
  N   -1.84069906520790      1.38350704282201     -0.05774197128597
  H   -1.91017299022241      3.69292990792766      0.21209677562525
  H   -0.26300798096754      4.04398144149899      0.38667967159634
  H   1.30042442652696      2.60549106344819     -0.20633860453031
  H   4.94193961170959     -1.63555205421284     -0.17050788126605
  H   5.15233753542085      0.05364569557513     -0.27311589110681
  H   2.36492093127931     -2.58316880386041      0.21521042289860
  H   -2.11270919928634     -3.29743528020191      0.15892370239690
  H   -4.53368438250594     -2.22320210845261     -0.10218243243799
  H   -4.29597679646098      0.42809529082074     -0.23556339616664
