35
Coordinates from ORCA-job ./opt_b97-3c_parallel
  N   1.77512784258786     -2.66277719119720     -1.34052876631118
  C   1.07078594752948     -1.73690126362327     -0.56171922563977
  N   -0.03917877521243     -2.22533880565179     -0.05811562179672
  C   -1.11078897469265     -1.70801997979904      0.50797343812713
  N   -1.81143877217311     -2.63696731209640      1.29072400393520
  C   -1.75239511341633     -0.48368095078688      0.26339001691815
  C   -3.16962580378808     -0.37271150693954      0.16186387231633
  N   -4.12296847091377     -1.28681123667317      0.50082150866167
  N   -3.55961897515858      0.79490745711350     -0.39003328908243
  C   -2.43486386758412      1.49035161725321     -0.61787543010399
  N   -2.55191980972509      2.76626393398983     -1.11269782068239
  C   -1.24833788105315      0.79280632006423     -0.23545079929713
  C   0.00913264049068      1.39794158691011     -0.06237247685953
  N   0.05734665727413      2.77118495417968     -0.22222387541990
  C   1.24218863952685      0.75404272302191      0.20877937092936
  C   2.42166448647319      1.42305241066209      0.63572445157784
  N   2.53815090653637      2.70923226751245      1.15210628268470
  N   3.54081673740824      0.70711842003620      0.45981243128780
  C   3.14977167270344     -0.45623278917286     -0.10706096853943
  N   4.10060557614170     -1.38727332153051     -0.41785486806955
  C   1.73853344857161     -0.53610526184073     -0.25794475613028
  H   2.21327649813715     -2.26443266004664     -2.15637082172143
  H   1.21232376610093     -3.47035340035650     -1.55784463753436
  H   -2.18564365547392     -2.25159357774058      2.14389909439451
  H   -1.26475497233309     -3.46851872615041      1.45183219923390
  H   -4.99258588909862     -1.15987601580781      0.00852275126977
  H   -3.79939244192893     -2.24033607136273      0.57951921101484
  H   -1.78662318286980      3.07480251719386     -1.69214506261044
  H   -3.46172775940622      2.93399881392122     -1.51337543544662
  H   -0.72111054531701      3.30671943634964      0.12778299484426
  H   0.95620406518004      3.20608338692638     -0.09075934428256
  H   3.48012628749448      2.86662386924088      1.47975520000123
  H   1.86676896055389      2.91931191141036      1.87591442126675
  H   4.95112033144792     -1.27928046997314      0.11108144017760
  H   3.76344873188722     -2.33506811873638     -0.50371087421326
