31
Coordinates from ORCA-job ./opt_b97-3c_parallel
  N   5.72417363625063      0.47162249902735      0.02633747331316
  C   4.56694110595595      0.32689531047700      0.02040599405417
  C   3.18501124603971      0.15472936334580      0.01016675416647
  C   2.50138249176036     -1.06395703898203     -0.19935612660245
  N   3.14307967037287     -2.23464354667370     -0.37794924645103
  C   1.09098458575541     -0.84115702000641     -0.07919202651850
  C   0.20629946351240     -1.89799597202669     -0.19989882766778
  N   -1.05238546700093     -2.11555420527655      0.12163487319666
  C   -2.11633885455655     -1.37297529016747      0.35537921744205
  N   -3.15672921824754     -2.11254849197152      0.90537993879037
  C   -2.41291477838484     -0.03173191985499      0.02455724498798
  C   -3.72771616798537      0.47909250008255     -0.17866702564314
  N   -4.91411475660691     -0.18348569318879     -0.15380957063935
  N   -3.74051189317126      1.82021043561310     -0.41634838897413
  C   -2.46640207954477      2.19765080686668     -0.34293019169105
  C   -1.56387775377009      1.13354335741747     -0.09987933994110
  C   -0.20771211634738      1.39315187833123      0.04840019823083
  C   0.91100654736685      0.59173902687390      0.15899005921266
  C   2.21624134095081      1.15989018244336      0.23617790972736
  N   2.52587456868268      2.46184199705961      0.41789465312783
  H   2.63857707217118     -3.05355394122267     -0.65985596387942
  H   4.12153339841266     -2.21746105831369     -0.60570624064573
  H   0.66832315572205     -2.81923765178761     -0.55670354699273
  H   -2.86377183006181     -3.03587924401707      1.18301902301870
  H   -3.72395799393924     -1.63711627382133      1.58964382620630
  H   -4.88388915423844     -1.18189961181136     -0.28778957557106
  H   -5.66685613556878      0.30397621954195     -0.61160645324541
  H   -2.18811541172085      3.23647659888403     -0.46350907317339
  H   0.00554486498348      2.45797128674734      0.01016546884016
  H   1.86594830474437      3.05722204397715      0.88289617682191
  H   3.49148784766305      2.70057338603568      0.56326470249920
