26
Coordinates from ORCA-job ./opt_b97-3c_parallel
  N   -4.58475452408336     -1.57405894336064     -0.84163754311352
  C   -3.65796498629709     -0.92677015484074     -0.56109075603516
  C   -2.61635355797300     -0.05851581418063     -0.23588986910274
  C   -2.79438543314574      1.34167828627927     -0.04978758766587
  N   -3.94565102781652      1.98861319178920     -0.28493241483494
  C   -1.58411975228116      1.90911286549507      0.37997244887243
  C   -0.59751926402771      0.92446819185455      0.42976248889923
  N   0.66903196350882      1.26855788125726      0.56579849353986
  C   1.78366559610385      0.59786096646956      0.36831228676234
  C   2.98932911981974      1.28173705060468      0.23726904363475
  C   3.98292604514398      0.39008216942876     -0.21565851324112
  N   5.24985135859458      0.72760004480493     -0.52020676764291
  C   3.43956081402231     -0.90891655309876     -0.32654047793188
  C   2.11060593078218     -0.88684508078257      0.07325021426151
  N   1.45321053066974     -2.00369277876992      0.31263636720741
  C   0.19072195220238     -2.25847987107396      0.58563449155784
  N   -0.95263701828859     -1.64700688354706      0.31955766865540
  C   -1.29454511470363     -0.40256694439167      0.12530245051837
  H   -4.77448393822577      1.46635133017200     -0.51069771566903
  H   -4.06807508737019      2.93691543074005      0.01700995645937
  H   -1.39321499313876      2.95774498490315      0.53842814350843
  H   3.09386821059606      2.34703519317284      0.36340864747283
  H   5.61191703375124      1.62532694993152     -0.25697826787423
  H   5.92297106904211      0.01795385909855     -0.74296629551060
  H   3.98232016975506     -1.80798309937713     -0.57025848504855
  H   0.04096183625928     -3.25289851247815      0.99932536862149
