31
Coordinates from ORCA-job ./opt_b97-3c_parallel
  N   4.28445900423968      0.18203466415735     -0.00298699814231
  C   3.11848877464370      0.13368594424271     -0.00397549450826
  C   1.71359197102139      0.07668684582102     -0.00520108078948
  C   1.07126930788481      1.18654224798477      0.61170201811491
  N   1.81879903332169      1.91396997408523      1.46894543447999
  C   -0.18254095932308      1.75381500196531      0.24761305567728
  C   -0.27990009027425      3.15722563154277      0.10223789446975
  C   -1.51554315987244      3.47643190374106     -0.46344517222851
  C   -2.23097040570443      2.29871960634526     -0.62838707384690
  C   -1.44233690711595      1.20068848308966     -0.19776672976712
  C   -1.99607309091007     -0.08566103531569      0.01465055509342
  N   -3.35083462992554     -0.14501933141518      0.03303612906893
  C   -1.32744831535474     -1.31914644852640      0.21129949764110
  C   -2.01073408436342     -2.48423688003367      0.64424220251110
  C   -1.19934285990514     -3.59466295173718      0.45627785129438
  C   -0.00533155352756     -3.16557859094853     -0.12512036625001
  C   -0.03154825983200     -1.75734046293868     -0.25864668004263
  C   1.16505526066567     -1.08108563577895     -0.62692485347466
  N   1.96770136563894     -1.73373982728269     -1.49436659533406
  H   1.44728392268178      2.77147907010919      1.83169327815168
  H   2.80792858544691      1.75670720272745      1.56302673460061
  H   0.53373721737438      3.85419566620020      0.23380565191604
  H   -1.83344144329803      4.46223602456522     -0.76492744386969
  H   -3.21205173398461      2.22911192443329     -1.07260847543886
  H   -3.82697615068540     -1.01736233991459     -0.08894417033173
  H   -3.89792979976298      0.68847772803410      0.12481822319811
  H   -2.98732958222064     -2.50261981318729      1.10296959210430
  H   -1.42613068360725     -4.60669377099816      0.75314853004608
  H   0.86349191460463     -3.78868563868937     -0.27323934083825
  H   1.67191617343934     -2.61892414669800     -1.86033571206049
  H   2.93844591130440     -1.48903066278038     -1.59290351994478
