28
Coordinates from ORCA-job ./opt_b97-3c_parallel
  N   -5.45931859667454     -1.29630072139566     -0.40519942044026
  C   -4.40754377005437     -0.81351365836307     -0.28857302895566
  C   -3.19736755047948     -0.13064187691101     -0.16098901268837
  C   -3.05575265235146      1.28475031975326     -0.11833393290244
  N   -4.02582069373279      2.18329773676530     -0.25749900622342
  N   -1.78256688655233      1.65675138334640      0.09369275342534
  C   -1.02944692186523      0.54209815854981      0.15945430380877
  C   0.35926229978559      0.73298527980620      0.23821221503425
  C   0.70783535768908      2.10153005145691      0.44898589736060
  N   1.01035840546274      3.19427189824866      0.69279781584920
  C   1.44992891998012     -0.15146986621344      0.08230933686071
  C   2.77642607928580      0.26176000450136     -0.08966554763688
  C   3.38484503976116      1.50725889189582     -0.27266193108074
  N   4.07446910447182      2.42309728081404     -0.47215139665898
  C   3.56681308898568     -0.93592347823816     -0.17093950949336
  N   4.88284734895299     -0.97249428895232     -0.36048387915302
  N   2.82787434580711     -2.03762471200471     -0.03790013368875
  C   1.53681439479882     -1.64112746386139      0.09986944397594
  C   0.61816574689558     -2.65539661041676      0.30197639208069
  C   -0.76899964893170     -2.76945784868131      0.40053018280559
  N   -1.79686010382697     -1.97455123515989      0.22519391546740
  C   -1.91876079403932     -0.67216498421065      0.05421785180763
  H   -3.80644505386685      3.16028641620503     -0.17337692187414
  H   -4.97732929583221      1.90447567645048     -0.41487213279168
  H   5.34922532553850     -1.85922332791789     -0.42531229561224
  H   5.41374450179775     -0.12714973113846     -0.47526083409520
  H   1.11769427367207     -3.61377182814187      0.37024440851011
  H   -1.08246843677776     -3.78843733378673      0.61450560911030
