24
Coordinates from ORCA-job ./opt_b97-3c_parallel
  N   -4.49420385444375      1.52513650449685      1.19528630159806
  C   -3.58808258772765      0.91551434603916      0.79190344506133
  C   -2.55993440594626      0.10316452566458      0.31660781895566
  C   -2.70088710691541     -1.29119125373491     -0.00890503169102
  N   -3.80864667407409     -2.00129102361935      0.18417824608309
  N   -1.60452331938122     -1.83521071289733     -0.54749047258456
  C   -0.65347554861547     -0.87047645447507     -0.55925129396922
  N   0.58515212140484     -1.20587609301593     -0.76719736173833
  C   1.72794212295175     -0.58465345409073     -0.48445711504385
  C   2.90307233251795     -1.27812934596863     -0.34656565469215
  C   3.82837253474357     -0.38645273516033      0.27672470666363
  N   5.06681684291158     -0.69291025480054      0.66070517857869
  N   3.34625097057955      0.85047406074113      0.48535997356305
  C   2.09755728558576      0.85542188361545     -0.02244389813270
  N   1.46986900470861      1.97214145815139     -0.21557937715114
  C   0.24669749032293      2.23783719838473     -0.64879256303169
  N   -0.91068846186082      1.69547217681073     -0.38370524992830
  C   -1.29525971684822      0.46643669776802     -0.13835115315087
  H   -3.83670730149172     -2.95929305435113     -0.11607852385771
  H   -4.62708136105927     -1.58838857840608      0.59384265524366
  H   3.03884255600324     -2.32703863239856     -0.55040647468569
  H   5.47860401547204     -1.58375343165143      0.45696326967319
  H   5.63043860209670      0.01658129545658      1.09594838439069
  H   0.18103478656573      3.16751754904010     -1.21017231915348
