28
Coordinates from ORCA-job ./opt_b97-3c_parallel
  N   -3.97036460383096     -0.68675315251586     -0.10264595639517
  C   -2.95621726577833      0.22447803145354      0.05786981331711
  C   -3.19017145580708      1.59294647285307      0.34947188324782
  C   -1.97803979289948      2.23353265505368      0.39644107753573
  C   -0.92031412187599      1.30320104374457      0.18057270430663
  C   0.37742111667833      1.75398275916014      0.08082450069950
  C   1.61126738175694      1.12503882665639     -0.09392813315123
  C   2.80303806931653      1.85817886941567     -0.30618134524770
  N   3.89273964738533      1.08195748301327     -0.37553369615325
  C   3.44993025421500     -0.17869879255532     -0.15465616503052
  C   2.06038690982023     -0.23992455995353      0.01886075432964
  C   1.35179484770819     -1.42155533478858      0.37844310641626
  N   2.06585173201397     -2.36924041623317      1.04935029493177
  N   0.14228189682413     -1.79618916395727      0.04411545277619
  C   -0.98311571406179     -1.25022157318549     -0.35556597805200
  N   -1.79248070183163     -2.14298602803684     -1.04374601144996
  C   -1.55693743775513      0.00506915250632     -0.04542421798601
  H   -3.70982763418460     -1.65634726171053     -0.00610868692193
  H   -4.82871005952436     -0.45238349050855      0.36758433306142
  H   -4.16529435525416      2.03709483612583      0.48011832964284
  H   -1.82067051155157      3.28854420615490      0.56125124927545
  H   0.45922983672407      2.83577074762099      0.14500419832686
  H   2.87036966720391      2.93262942898961     -0.41303353978809
  H   4.13447373208701     -1.01485680988913     -0.18729846219120
  H   2.85716508742254     -2.08255762840288      1.59344618469986
  H   1.57951569033928     -3.20214380944906      1.33008121699588
  H   -2.36255116046200     -1.74501533952804     -1.77263184303606
  H   -1.31183879007821     -2.98673358683316     -1.31096442605972
