21
Coordinates from ORCA-job ./opt_b97-3c_parallel
  N   -4.37040050993022     -0.88028210044145     -0.00107401505830
  C   -3.11586580121557     -0.42431388596007      0.00021263678717
  C   -2.70074550376334      0.92926195321488      0.01106367253184
  C   -1.32251871533625      0.93271131423528      0.00812726950564
  N   -0.68243238615220      2.10029395478162      0.01691110390563
  C   0.58561851824047      2.42570728375330      0.01680183119923
  C   1.81064612345888      1.73669290889441      0.00776839102758
  C   2.18264882510986      0.41514398014950     -0.00456303849713
  N   3.51193968308019      0.11880453879431     -0.01026115974857
  C   3.54603367932719     -1.21602104492657     -0.02154145233596
  N   2.36651866238473     -1.87083054666006     -0.02425057695747
  C   1.43848527940372     -0.89643808775521     -0.01387094928677
  N   0.16824977710117     -1.25448528590415     -0.01403022116789
  C   -0.94514190513200     -0.57437026644142     -0.00575560016621
  N   -2.08680395295759     -1.29233082509255     -0.00949111129450
  H   -4.52622001411160     -1.87297935770929     -0.00927105837006
  H   -5.16037342216445     -0.26387158654541      0.00607628531569
  H   -3.31729989396440      1.81319971891546      0.02008975631963
  H   0.72437630368091      3.50469474247438      0.02599257967554
  H   2.66835166234265      2.39914128711121      0.01142204358532
  H   4.48293705729770     -1.75493577168821     -0.02827589937034
