28
Coordinates from ORCA-job ./opt_b97-3c_parallel
  N   3.56435193828466     -2.55845090990995     -0.46519702357097
  C   2.55861907601768     -2.00525319832056     -0.28391196051333
  C   1.29187578003638     -1.38717889027550     -0.07357511481460
  C   0.26079019900442     -2.35054293900511      0.12736215607230
  N   0.66452012863180     -3.65492165567720      0.30741824910950
  C   -1.13096207392406     -2.20400628981123      0.16674895961352
  C   -2.05112889588891     -1.19502239448848      0.02010139034327
  N   -3.36897279467678     -1.57415791313119     -0.01323756726004
  C   -4.03618026301920     -0.43024023320537     -0.14953605568731
  N   -3.30149144017839      0.69873175629192     -0.18618313995839
  C   -2.02414478032182      0.27170913255541     -0.08362554441907
  C   -1.01079390924713      1.23720612868611     -0.00592606552493
  C   -1.52719635128736      2.57341387785249      0.00363740797540
  N   -1.85015073676157      3.68704376489016      0.02308076435013
  C   0.38947458075944      1.16390691018628      0.06100785670936
  C   1.14555563919970      2.33383694855915      0.11715265903263
  C   2.51275042699631      2.01693436352404      0.04042128213734
  N   3.52462417896858      2.89912943760201      0.08483070863940
  C   2.64234864898512      0.62167077011460     -0.06458905331288
  C   1.38192106647406      0.02269290649253     -0.03224205703394
  H   -0.00792332496966     -4.37748988884864      0.12705360083884
  H   1.61766755805163     -3.91269827126778      0.12044609358262
  H   -1.65055199913647     -3.14631072434570      0.30023909999396
  H   -5.11324271257250     -0.40195407881846     -0.22611500317210
  H   0.74034092921287      3.32888372323539      0.17588655321614
  H   4.46928365136317      2.60806347652219     -0.08427189357062
  H   3.34441168153802      3.88572160757936      0.08865249436880
  H   3.58101500906003      0.09713339971353     -0.11145044644504
