27
Coordinates from ORCA-job ./opt_b97-3c_parallel
  N   4.50807153636251     -1.20158440702134     -1.42836875690834
  C   3.61195171319230     -0.60157405422445     -0.98638100308337
  C   2.59750558601485      0.19253000753726     -0.45636687886840
  C   2.80448714875492      1.51843887540636      0.03237879408838
  N   3.95358867634027      2.18787565167898     -0.11793151205161
  C   1.63679576622901      1.98916091270187      0.65172479777835
  C   0.63076398770937      1.02989453600543      0.53119710834839
  N   -0.62371137422869      1.32736520138646      0.78364827457164
  C   -1.75085584724994      0.74343701178843      0.40651039292314
  C   -2.95031757317252      1.42903805788796      0.36961354428256
  C   -3.86449000154661      0.59885854327161     -0.32495102908659
  N   -5.11603547219893      0.91640803336640     -0.67560812768158
  N   -3.36644329976136     -0.60898678088842     -0.66529632524374
  C   -2.10480643629529     -0.63706446508710     -0.20122241285887
  N   -1.46272861439411     -1.76606840883188     -0.14389689283426
  C   -0.21858122201338     -2.04117804115839      0.23811038974321
  N   -0.08280204136716     -3.20072213023301      0.92497937751030
  N   0.93509265713658     -1.46096094089852     -0.09364597679903
  C   1.30151845441704     -0.21434354289840     -0.08416559881882
  H   4.74886809668851      1.73666972304744     -0.53559271963291
  H   4.10920367363635      3.05583556072601      0.35921073332784
  H   1.47247408088194      2.98809284003929      1.02024725886639
  H   -3.09698202761730      2.44787039618050      0.68672136980892
  H   -5.67786055512007      0.21785158699796     -1.12920635083434
  H   -5.56327104690174      1.74218625316819     -0.32607538078398
  H   0.83780203456694     -3.59899085095445      0.98471646502780
  H   -0.87224148936529     -3.82196380879609      0.94423133750888
