31
Coordinates from ORCA-job ./opt_b97-3c_parallel
  N   5.12968193709742     -0.67749701916927      0.44779511258524
  C   4.01167803690210     -0.41412375080755      0.24837764209851
  C   2.67286878467743     -0.10294437588824      0.01573782210496
  C   2.10459626681911      1.17769526368654      0.05130537371116
  N   2.82264448846983      2.32631409454316      0.18615009844763
  C   0.68953744596762      1.07264248941929     -0.13840196454303
  C   -0.02236484956515      2.22831056241999     -0.39226280370561
  C   -1.36331685087825      2.57688087181159     -0.53464128120681
  C   -2.53003982044318      1.90030758006456     -0.24565118520959
  C   -2.84214691090017      0.59011965348551      0.11298402789235
  C   -4.16602828003813      0.29447937968293      0.54890768916068
  C   -4.28388245732407     -1.06116282134702      0.79302289937086
  C   -3.06136651220372     -1.66064156540798      0.45710909050474
  C   -2.13948966455809     -0.67575177748920      0.04281198459107
  C   -0.83280115135174     -1.05436885342469     -0.39320638979705
  N   -0.75570390638739     -2.34641294383984     -0.87902851819077
  C   0.38802568625626     -0.36921324785345     -0.26417683768202
  C   1.63160616698891     -1.04666302633029     -0.18475762093219
  N   1.88450991740316     -2.39285510297624     -0.22410984226659
  H   3.79365784976012      2.21622197005255      0.42604867820188
  H   2.38166045453342      3.09515913001574      0.65820137730664
  H   0.62289337827791      3.09447999896528     -0.50448002082742
  H   -1.51134645704558      3.62066619908010     -0.78375741525133
  H   -3.40498393108086      2.54366127103883     -0.25467014668526
  H   -4.93804209649641      1.04003162249563      0.66671391707851
  H   -5.15114579276688     -1.57453289542364      1.17721123139850
  H   -2.83750097131308     -2.70854078813870      0.58979824523979
  H   -1.63043948675997     -2.72216580792368     -1.19752060058748
  H   0.00256823447063     -2.53654767017176     -1.51290911819884
  H   1.14528060992430     -2.99136180973391      0.11065855051614
  H   2.79403979186405     -2.65837389613662      0.12093514427501
