25
Coordinates from ORCA-job ./opt_b97-3c_parallel
  N   4.56155981971053     -0.85202156432824      0.03402822735294
  C   3.25891309118773     -0.48779912988791      0.01680875028606
  C   2.74142253941522      0.81968144967042      0.14346609334261
  C   1.36407132217778      0.72024979023176      0.02148716658066
  N   0.61728136960305      1.82191796405017     -0.01824653536075
  C   -0.65725695503057      2.09794486190315      0.00246989314987
  N   -0.92916225093394      3.45184670488538     -0.11329079358229
  C   -1.83841892059641      1.32173140911983      0.23208266876576
  C   -2.15095888050632     -0.00072267186002      0.18499171707222
  N   -3.49016200781624     -0.31731834057425      0.37136034418842
  C   -3.58877333385087     -1.62330776737783      0.17295424845855
  C   -2.35480834658504     -2.23814917467606     -0.12881106447696
  C   -1.39026247916906     -1.23831945982467     -0.11804173703817
  C   -0.02886686655383     -1.50994516290923     -0.26488344535946
  C   1.11141223832133     -0.75077582154349     -0.16948887056134
  N   2.30395579298530     -1.40846742407813     -0.19264774476189
  H   4.74863317599602     -1.83763522053438      0.10159582989590
  H   5.23272717986338     -0.24098198422513      0.46121113715519
  H   3.28685638333492      1.74164455956666      0.25887262140454
  H   -1.81990740733349      3.72348722508485     -0.49110755599229
  H   -0.14678934400213      3.99927677491946     -0.42981531444743
  H   -2.71151768191139      1.92202939058563      0.46090482206412
  H   -4.54858287234179     -2.11645347924383      0.25022583112305
  H   -2.17573328484307     -3.28726551586059     -0.30359734673953
  H   0.19863731007875     -2.55872969079350     -0.42094185801971
