29
Coordinates from ORCA-job ./opt_b97-3c_parallel
  N   4.82221548742945     -1.33395525639311     -0.06426655169667
  C   3.87800319471287     -0.65027127763581     -0.03832397744078
  C   2.76557170083759      0.18574495898687     -0.00720180426896
  C   1.39408863662646     -0.19552334209315     -0.00944135320494
  C   1.03464402020327     -1.52522724908931     -0.03597953726681
  C   -0.15260159340826     -2.27257083689240     -0.04073038582729
  N   0.05445422847266     -3.65046614408151     -0.11909639039988
  C   -1.49748504314935     -1.89536365981025     -0.03723857433866
  C   -2.22292760194862     -0.71455998069915     -0.01625102409801
  C   -3.62174499601712     -0.72686575709126     -0.02279714590630
  C   -4.03868905907497      0.60926780218610      0.01652988412947
  N   -5.30334303199019      1.08577432232463      0.06334898972299
  N   -2.99936033156274      1.47573755973528      0.05113625972550
  C   -1.86933027134385      0.73642088775723      0.03355455098334
  C   -0.67386737726272      1.43166367070695      0.04327963927139
  C   0.67081865702776      1.09411614458919      0.03396162276304
  N   1.55225018786912      2.12447084302803      0.05579268255213
  C   2.78870284078943      1.59808726190177      0.03316364586657
  N   3.87892611366635      2.38322153565397      0.08355262182051
  H   1.91169334356370     -2.16535690976272     -0.06678964447254
  H   0.95349057879438     -3.98077443825400      0.18667707847698
  H   -0.69589558029469     -4.23089160801812      0.21329036001306
  H   -2.15870585488366     -2.75696450674922     -0.07115261571701
  H   -4.24663882430349     -1.60555154002586     -0.04684416709097
  H   -6.06088007298613      0.49500181239586     -0.22514464716298
  H   -5.41562688832360      2.07044762111860     -0.10450304865630
  H   -0.82493039744296      2.50307302536579      0.07602059980832
  H   3.74950764725980      3.36881685897599     -0.05764750377376
  H   4.78211461093954      1.99620379446961     -0.12071786101150
