24
Coordinates from ORCA-job ./opt_b97-3c_parallel
  N   -4.29841840517852      1.79487872311575     -0.00539943152701
  C   -3.36988412967870      1.09398038817387     -0.00298467198937
  C   -2.34032311108059      0.14900230408809     -0.00036703902131
  C   -2.57355539603330     -1.25763153392426      0.00343059393646
  N   -3.78885866349254     -1.82039204548848      0.00572687408963
  C   -1.33385118387173     -1.90434561448978      0.00489071052193
  C   -0.29386229230503     -0.96523905307138      0.00224124140594
  N   0.94448855448578     -1.41206954254353      0.00326579067490
  C   2.11475983796445     -0.80427593015090      0.00172468152588
  C   3.30153090721449     -1.55694782614364      0.00362128247550
  C   4.35277853957965     -0.65010585766578      0.00153667209118
  N   3.94480052771908      0.63759499235601     -0.00161052581696
  C   2.58928624740431      0.62298935151552     -0.00173253738703
  C   1.94428620454386      1.84323790618734     -0.00509678796623
  C   0.61226505505554      2.26056106982193     -0.00647621702159
  N   -0.56645134636968      1.66726359497431     -0.00481594549947
  C   -0.95481641046056      0.41137628677890     -0.00129836014846
  H   -4.61723156423355     -1.25216646296560      0.00210178863482
  H   -3.90261553630027     -2.81608580108376      0.00571708057877
  H   -1.16556355620512     -2.96884263774495      0.00775480826832
  H   3.34413003264826     -2.63298505904611      0.00625198056251
  H   5.40939631005118     -0.87689781456985      0.00219900517731
  H   2.64939414181737      2.66622291078542     -0.00720125530936
  H   0.51366427232567      3.34282488129066     -0.00957699005584
