24
Coordinates from ORCA-job ./opt_b97-3c_parallel
  N   -0.92571186834913     -3.51705771051467      0.11458958344971
  C   -0.69175165754453     -2.15444961039087      0.04515480005875
  C   -1.86260757269486     -1.37717207808802      0.05120943331047
  C   -2.17198031838518     -0.03685846552221      0.02625120648207
  N   -3.49898566641359      0.28994974303135      0.03364111188375
  C   -3.50868696980031      1.62538181439999      0.00258293910193
  N   -2.31849799496942      2.24833828381869     -0.02486553299968
  C   -1.41228398337761      1.23865015653333     -0.01183614298328
  C   -0.07114503365484      1.56654668601625     -0.03062910499387
  C   1.10057684536039      0.82299016877745     -0.02658608321418
  N   2.27394225467826      1.48323858834223     -0.04892948252682
  C   3.20841482175531      0.50396429734091     -0.03528986690775
  N   4.51875288196316      0.78820899271630     -0.07955804396478
  N   2.75167610211541     -0.76247615787305     -0.00549985916439
  C   1.40374997265601     -0.63365073973707      0.00201606417816
  C   0.66108755209961     -1.80118701407825      0.02831818563734
  H   -0.17901818669788     -4.13043635797421     -0.15905242766511
  H   -1.83638298207448     -3.84445403604026     -0.15390895691176
  H   -2.77381718931460     -1.96518600476029      0.08456823012762
  H   -4.43460982950088      2.18292867796963     -0.00016566912541
  H   0.10422102229895      2.63463706209722     -0.05536348966990
  H   5.17682375139619      0.05311062336755      0.10037087894945
  H   4.80674233528407      1.73794157700305      0.06575711899722
  H   1.32946610246996     -2.65566182733505      0.04362154855041
