26
Coordinates from ORCA-job ./opt_b97-3c_parallel
  N   -2.75153201366257      3.29860685410352     -0.01450926132094
  C   -2.47327956503885      2.16820770297969     -0.01132225964180
  C   -2.23881826572829      0.79391911755748     -0.00797342309475
  C   -3.23517214723304     -0.20601502080066     -0.01007631825709
  N   -4.55803146365805     -0.01891818127035     -0.01540347452006
  N   -2.71234486260953     -1.45255426716872     -0.00645347348141
  C   -1.37021094755229     -1.33353383217207     -0.00158656963488
  C   -0.63195434599011     -2.51181010565791      0.00118267656998
  C   0.71749661332451     -2.82058457737733      0.00622335543102
  C   1.90519735444316     -2.10272621943281      0.01125056122797
  C   2.22929925227743     -0.75492531250521      0.01367853642200
  N   3.53474305544814     -0.43380023353946      0.01753263592022
  C   3.61356484840416      0.92306689471565      0.01527250497942
  N   4.82068590646722      1.51055103579693      0.04304707957506
  C   2.35332646107560      1.53872680501939      0.01109538184554
  C   1.40759212866035      0.51702404708727      0.00807501011296
  N   0.12003010182108      0.81372454776649      0.00172097863697
  C   -0.99013927552800      0.12079705369402     -0.00194792660726
  H   -4.95273249866828      0.90321341306086     -0.01601862647037
  H   -5.16713672785878     -0.81618121248316     -0.01421302025236
  H   -1.28532157143009     -3.37589590566151     -0.00089625971325
  H   0.88940531642433     -3.89103947150000      0.00705390831941
  H   2.79684847648153     -2.71816787231371      0.01587101840684
  H   4.91667503149642      2.49587642544355     -0.11280796138152
  H   5.63217861056630      0.93108659349304     -0.07789400764820
  H   2.12033704036769      2.58996878936513      0.01204130687652
