31
Coordinates from ORCA-job ./opt_b97-3c_parallel
  N   -2.41993875011437     -2.95075277424007      0.50788746753486
  C   -1.48099576998026     -1.96610135367004      0.22093219606221
  C   -0.17819199761891     -2.47753253281441      0.07487046442127
  C   1.07794814558065     -1.95201414317666     -0.16508212343143
  C   1.65005975969116     -0.69287655113327     -0.14759808685057
  C   3.05274426648279     -0.48753326322624     -0.27273209373576
  N   4.01066917692186     -1.41278849604075     -0.55760176292160
  N   3.43531698640912      0.77944453891281      0.00450210029115
  C   2.30485780163226      1.44279108205177      0.29144751305730
  N   2.36123795738138      2.77539401348859      0.57507499561521
  C   1.13059400079303      0.63118370971667      0.17732091896720
  C   -0.13431098963673      1.16685097023924      0.17828975368147
  C   -1.41702439186299      0.66064649875011     -0.01384828043152
  C   -2.50029682505671      1.57872739719472     -0.21528409184998
  N   -2.38672581053712      2.95282064434573     -0.29490198485805
  C   -3.70417087358224      0.86920653810670     -0.29583914936214
  C   -3.40488321095500     -0.47740686510831     -0.15039925287667
  C   -2.01205325239737     -0.66957184892236      0.01837918977894
  H   -2.04180517598430     -3.83451065516488      0.79920701553072
  H   -3.19995727513437     -2.66294929259700      1.06960362566797
  H   -0.15373266891940     -3.56020494083214      0.15239460721178
  H   1.81028307260008     -2.74420777641590     -0.29864433228395
  H   4.90928973572446     -1.01779993831015     -0.77778665131812
  H   3.74831315958731     -2.18752564425627     -1.13976250862635
  H   1.66172757949201      3.13877619139995      1.19770934081366
  H   3.29063782581358      3.10859431077444      0.77039532607736
  H   -0.13259422685553      2.24603400585943      0.30861126240174
  H   -1.58252611994230      3.29436438092872     -0.79412893390244
  H   -3.22491490189352      3.41363399788796     -0.60745337473170
  H   -4.67732175712576      1.29129408197218     -0.49542550130535
  H   -4.13088459031287     -1.26828654382063     -0.25409054812742
