26
Coordinates from ORCA-job ./opt_b97-3c_parallel
  N   -4.29528017542666      1.68957675541536     -0.00493238437235
  C   -3.42887473114468      0.90970728609537     -0.00904731211457
  C   -2.41772990743808     -0.04970657719203     -0.00972340867233
  C   -2.65738177111015     -1.44894385094264      0.00637857411688
  N   -3.87244020492470     -2.01375828777713      0.00938267382063
  C   -1.42012338269881     -2.10736393911065      0.01098759619310
  C   -0.37905531188349     -1.17711144460180     -0.00007519884620
  N   0.85813459158841     -1.63267796992703      0.00661053358859
  C   2.03803409509239     -1.06717688269258      0.00367574798262
  N   3.12868901238517     -1.88115069658435      0.02017956506085
  C   4.16980399951389     -1.04584901051128      0.01308726265516
  N   3.91016837378426      0.27407978926411     -0.00754765823887
  C   2.55551540562413      0.34724127868362     -0.01510900480420
  C   1.99737033881673      1.60689760809100     -0.03480884939145
  C   0.69903925774812      2.12483495087426     -0.04286043925426
  N   0.62745501357071      3.49944510026239     -0.10697615662866
  C   -0.55532077017390      1.48440858225410     -0.03660993722408
  C   -1.01711024968300      0.19384703323102     -0.01631427539811
  H   -4.70285611140745     -1.44966802323059      0.03216808692089
  H   -3.98156838796363     -3.00885849979260      0.05226487119510
  H   -1.25641023093842     -3.17187634229392      0.02205370473414
  H   5.18694693729322     -1.41214216712043      0.02322416173573
  H   2.77496035530805      2.36344894801151     -0.04964510155279
  H   -0.23840734870734      3.94801505062010      0.13204908787798
  H   1.44947745131064      4.02973682452767      0.11829742128601
  H   -1.37219368953541      2.20025914714646     -0.05629238926981
