31
Coordinates from ORCA-job ./opt_b97-3c_parallel
  N   5.24552202697109      1.22506308719198     -1.07043243642051
  C   4.28754715879168      0.62829734878220     -0.78620801555506
  C   3.17956408804109     -0.14850462049093     -0.45317721464580
  C   3.18079212234077     -1.55913582037298     -0.25266161265430
  N   4.19567740897884     -2.38507514194332     -0.47621144822582
  N   2.00297234208999     -2.02234898865404      0.21957445609311
  C   1.17062975678071     -0.97318137172149      0.28874966954048
  C   -0.18650337444392     -1.19590669415499      0.55460437100327
  C   -0.44972729174849     -2.48166106728311      1.10513945005839
  N   -0.65400113179587     -3.48723396435921      1.64650433754808
  C   -1.31044537531528     -0.43231712374855      0.16040562497105
  C   -2.57847661658732     -0.98409075468716     -0.04348531936135
  C   -3.07716880433025     -2.28599617964221      0.04860702192667
  N   -3.66753799160501     -3.28897099394146      0.03810094870378
  C   -3.39469497846232      0.06337118651434     -0.60575561105941
  N   -4.65517310484006     -0.08313064981713     -0.99680370430915
  N   -2.73855990806033      1.21493583008576     -0.70857700927333
  C   -1.48768742960023      1.00744506801365     -0.23090560966880
  C   -0.72819705076526      2.14419786794851      0.00803637050927
  C   -1.38360910019222      3.38022435515897     -0.22544630456333
  N   -1.82580666879634      4.44758202479544     -0.35049846778672
  C   0.61744993928293      2.28169554798408      0.52084923070891
  N   0.87835729785538      3.38359302918001      1.25243945975968
  N   1.65999917919313      1.54127181398576      0.24783945521421
  C   1.91280070134980      0.29192536480147     -0.03291029795658
  H   4.09380599907517     -3.35958421120072     -0.25258335453035
  H   5.06891847997321     -2.05319453717070     -0.84449917699368
  H   -5.12622100108266     -0.96645691838041     -0.90899581488509
  H   -5.14013731827684      0.69601819318605     -1.40531454932629
  H   1.84319931640221      3.62350747538717      1.40155468556634
  H   0.18742524137822      4.10446898031813      1.36662496730618
