27
Coordinates from ORCA-job ./opt_b97-3c_parallel
  N   -3.23228117661639     -2.85306472253404      0.56100643429207
  C   -2.38204045275508     -2.07529051456364      0.40420211579299
  C   -1.26851927869081     -1.22956745838965      0.17256476823600
  C   -0.05501381848442     -1.92095139003528     -0.14208756359536
  N   -0.17835274909870     -3.18069879169473     -0.63481004181840
  N   1.19948550248506     -1.57996330319266      0.07983126011097
  C   1.95338661604876     -0.52763315274471      0.14081742274965
  N   3.24799674503022     -0.68032664781020      0.50414270269170
  C   3.84565715286095      0.49957484064944      0.26235517988066
  N   5.14420039546217      0.66527987938846      0.54603491593736
  C   2.96914039099072      1.48122301193028     -0.27265131903743
  C   1.71477559588621      0.90241640344164     -0.29855689088202
  C   0.54348805433045      1.61630940755535     -0.51570327843274
  C   -0.78749169044188      1.35194150610600     -0.25954213031856
  N   -1.66262767225108      2.38739947452593     -0.29631291613903
  C   -2.81945671027733      1.85687505497899      0.13554410419476
  N   -3.92836022984355      2.59017787254040      0.29106819244717
  N   -2.81066522320579      0.53322650161420      0.43528217918561
  C   -1.55638636096185      0.14381915651897      0.17693397532804
  H   0.63166610798490     -3.77040446121060     -0.56247702058053
  H   -1.07950812836402     -3.62370256739595     -0.67889681615384
  H   5.67004553794422     -0.13102271167535      0.85974790426346
  H   5.64485770189097      1.47692132380939      0.23812166302040
  H   3.20848253860585      2.50592671586337     -0.50833918425153
  H   0.69731431213886      2.65289070570864     -0.79344698224037
  H   -4.79154685164988      2.12325823662470      0.49809257645571
  H   -3.95064811361864      3.52483054799101     -0.07118016883670
