25
Coordinates from ORCA-job ./opt_b97-3c_parallel
  N   2.63394217114145     -2.03434613286164     -1.02138459624393
  C   1.66145684833881     -1.41043050369810     -0.31787317155820
  N   0.68331775844901     -2.21741454342223      0.05296734782342
  C   -0.55972745507138     -2.02868388246618      0.42448820997596
  C   -1.47283326942234     -0.99365208272327      0.25645853891098
  C   -2.84878051612560     -1.21853829207964      0.45414489872056
  N   -3.61785619884674     -0.15677246044135      0.18250334046540
  C   -2.76013404419766      0.82826529005037     -0.17126193457952
  N   -3.23768142632963      2.05899967529115     -0.45519440848040
  C   -1.38757647697736      0.41149132644660     -0.12935069729570
  C   -0.33401163705701      1.29569891050849     -0.11387506100916
  C   1.03605984879739      1.11085619960626      0.04465404775157
  C   1.91958457572120      2.20692541554978      0.23000991270029
  N   3.19607737619546      1.83738014426872      0.34617646200519
  C   3.19252112751021      0.48767325743831      0.18811449037240
  C   1.90967951303065     -0.03735828030740      0.00419847149255
  H   2.54106320202467     -3.01967607768018     -1.19513509269569
  H   3.32772887663066     -1.50783492953324     -1.51640831881690
  H   -0.99728872453192     -2.91832737423391      0.87560024013279
  H   -3.29656322260883     -2.15523992963460      0.75676955970681
  H   -2.70182224745116      2.67491627404122     -1.03779909680633
  H   -4.23684095352378      2.13136644389940     -0.53959022232131
  H   -0.61347574275485      2.34514289007983     -0.17212186836279
  H   1.62678000092138      3.24711478744512      0.28606042644668
  H   4.11235197153703     -0.07422060284424      0.27191861276483
