25
Coordinates from ORCA-job ./opt_b97-3c_parallel
  N   4.49433148458308      0.40704349383372     -0.01471686915804
  C   3.33965230809280      0.27896985449695     -0.00924658484764
  C   1.91720734863526      0.36412080591433     -0.00474154640671
  C   1.43544009432524      1.69277128980577     -0.00680863573745
  N   2.35940053865944      2.68885660939592     -0.01464840138778
  C   0.10324396718135      2.18164745454154     -0.00044392172846
  C   -1.17604992562585      1.70833086598462      0.00262768321925
  N   -2.13664339285652      2.70808103652435      0.00572792126284
  C   -3.31374018398403      2.10277997828045      0.00436769422140
  C   -3.21030468654572      0.69717708640929      0.00074617240825
  C   -1.85534792380825      0.38977134113402     -0.00010788381915
  C   -1.36820426598767     -0.93291971974281      0.00025812544220
  C   -2.39311946490903     -1.93241523328393     -0.00132477688952
  N   -3.29939105378552     -2.65539087277836     -0.00313867275543
  C   -0.07916403364873     -1.45362569751132      0.00299518007066
  N   0.03575863502673     -2.81415017632912      0.00724240437620
  C   1.34253739378050     -3.04355783463613      0.00966449206933
  N   2.13860391841829     -1.95295672187405      0.00656757434614
  C   1.29655687592350     -0.90257687659805      0.00255962146207
  H   3.34505189133998      2.49197009386539     -0.01744103593700
  H   2.07437144029517      3.64885660285304     -0.01521553048283
  H   0.06603761514404      3.26533400629378      0.00141680821015
  H   -4.22826621300748      2.67842976777264      0.00600162435979
  H   -4.02239021477325     -0.00932701390118     -0.00043165361895
  H   1.75295847722665     -4.04186472665081      0.01390206052069
