30
Coordinates from ORCA-job ./opt_b97-3c_parallel
  N   2.98804579761422      1.99408386024572      0.48349289904365
  C   1.74403371745781      1.42671186176730      0.31446564869229
  C   0.69677654023811      2.36783935646690      0.35628095226925
  C   -0.64286542082122      2.32430557595640      0.05367458203496
  C   -1.60404258705545      1.33769601759968     -0.14393138292700
  C   -2.93754499557244      1.71797975145380     -0.40613294327664
  N   -3.79368427258775      0.69244827707082     -0.42247857662926
  C   -3.05225502341675     -0.39859871645722     -0.12509318534702
  N   -3.67762451642623     -1.62475579207537     -0.06248658716730
  C   -1.67468402221757     -0.09507702308150      0.07505927376921
  C   -0.69433296917365     -1.03744321393313      0.42993047804468
  N   -1.15275277204585     -2.22993826235859      0.94272970886353
  C   0.70836139304047     -0.99337767873810      0.18982036387878
  C   1.39357045580556     -2.19532483423369     -0.05817763236962
  N   2.68269394331708     -2.02111576093611     -0.39101900096178
  C   2.89832763489125     -0.69876547135294     -0.31709803157462
  N   4.18215537314398     -0.22986674436996     -0.53680394240969
  C   1.72233811668638      0.04147835257111      0.02628018969308
  H   3.73049078680174      1.40406562631729      0.82539079890023
  H   3.00548996349107      2.93447859159502      0.83567606183327
  H   1.04952588686104      3.37641839026046      0.54689917361201
  H   -1.07652750902329      3.31826405140508     -0.01480678026955
  H   -3.28043489846755      2.73138188105549     -0.56454898983724
  H   -3.14613437465288     -2.40176328388850     -0.42618571504623
  H   -4.60754810546720     -1.57908395233123     -0.45180843354657
  H   -2.07471594439779     -2.22302503260319      1.34808345274889
  H   -0.48434935695028     -2.76420286104324      1.46625792178567
  H   0.95702257611955     -3.18088542445809     -0.11953706984512
  H   4.23524884191428      0.63084499737128     -1.06202298279522
  H   4.75345935699313     -0.95605517677532     -0.94340021426663
