32
Coordinates from ORCA-job ./opt_b97-3c_parallel
  N   3.94356830087698      3.09147583837594     -0.47912301759606
  C   3.09667276485266      2.31542361498805     -0.30296189014501
  C   1.99643195079265      1.47107451164105     -0.01342269862942
  C   0.87246553305560      2.13697561752388      0.60678013597887
  N   1.15130871509041      3.20649920685127      1.38119060786462
  N   -0.39556143462199      1.90733922965600      0.41042895679111
  C   -1.19894809012608      0.94435321616450      0.04827168145113
  C   -2.50989069981521      1.23057739359221     -0.38527626702712
  C   -3.04660105917181      2.49461971118612     -0.62843272842386
  N   -3.54667800150550      3.52335572506452     -0.84360716965639
  C   -3.25716400915431      0.02742816345794     -0.37325270149111
  N   -4.53286069712944     -0.09818478205740     -0.72059962842893
  C   -2.42004829787194     -1.03692128857780      0.06671526073274
  C   -2.90706704814060     -2.34568307271613      0.06006802401552
  N   -3.46102808471336     -3.36794910416293     -0.00618013216383
  C   -1.11232865157153     -0.53155886735221      0.26119432567392
  C   0.01529206431030     -1.30184677417432      0.53795022462682
  C   -0.22764004209398     -2.60539625309909      1.05405879588432
  N   -0.35032037996638     -3.65042459342272      1.54475584687321
  C   1.38234735299736     -1.08350103518936      0.19551087881267
  C   2.26688870184103     -2.13332727436196      0.05570543862593
  C   3.44608912875338     -1.60057712389935     -0.53860971173445
  N   4.52626736940323     -2.28949024929708     -0.91144885030620
  N   3.37722192250369     -0.27477748152977     -0.72410148670261
  C   2.17504879814479      0.11759783536360     -0.24669511870665
  H   2.08912248186228      3.56145603634147      1.44651446407197
  H   0.39382740478276      3.82951763563240      1.60208901657682
  H   -4.99369618756455     -0.99056734952526     -0.66333544134473
  H   -5.05830658258831      0.69244557533532     -1.04965876056266
  H   2.06277130719111     -3.17147608300530      0.25405517752552
  H   5.30288811510834     -1.79818126859216     -1.31774117593053
  H   4.62361678136215     -3.26669824491492     -0.71164502695295
