23
Coordinates from ORCA-job ./opt_b97-3c_parallel
  N   -4.22566857774846     -1.46783862983337      1.26944323880183
  C   -3.34119562846043     -0.82550621904795      0.87022243330903
  C   -2.33394076585461      0.00741559425618      0.38343570200107
  C   -2.52626363282235      1.33004454406692     -0.10581276380595
  N   -3.66594263602594      2.00701790728604     -0.08969488255513
  N   -1.40872418086541      1.88559103352336     -0.62956769865533
  C   -0.41920428857921      0.99582377436226     -0.49194869405395
  N   0.80802656162684      1.38384688430708     -0.74505145569372
  C   1.95861235233327      0.89841881412247     -0.33258127720721
  N   3.05385958785860      1.65890185919723     -0.36486339904062
  C   3.95748654881225      0.98262370961512      0.39641524372180
  N   3.61422739845581     -0.19127587926360      0.91871684817001
  C   2.36897956955483     -0.40474244663329      0.41841197133632
  N   1.84220887830570     -1.58136914969760      0.43038901732153
  C   0.68494941863284     -1.99836994503682     -0.10695991825399
  N   0.76779824262558     -3.14869209796177     -0.79680101114734
  N   -0.53816058018012     -1.53377317262942      0.10876136328262
  C   -1.00718954269981     -0.32032834292238      0.07826029500420
  H   -4.49900418555723      1.62012362652671      0.31718089414633
  H   -3.69279005028906      2.93026176164087     -0.48596250997006
  H   4.93704489893707      1.40482371665781      0.57478088747751
  H   -0.08244619955421     -3.62464031149670     -1.04207040179350
  H   1.62610584399567     -3.66990761703768     -0.76489400019147
