23
Coordinates from ORCA-job ./opt_b97-3c_parallel
  N   0.01003137723273     -3.43114000185379     -0.12410173664218
  C   0.03758697601102     -2.05365441609383      0.00854751612215
  C   -1.26018876852989     -1.48900199137297      0.21186657191756
  C   -1.78982096762064     -0.23498187323344      0.17462397755878
  N   -3.16603245402727     -0.15589164097829      0.34524113578234
  C   -3.49071072312525      1.11424320802833      0.16275314270895
  C   -2.37411787850761      1.93484570443771     -0.11410343016256
  C   -1.25507271461283      1.11321974245486     -0.10531122055681
  C   0.04236087745451      1.61796260823748     -0.23697303202504
  C   1.28648266829259      1.05672902752199     -0.13444214619289
  N   2.35509286640135      1.91466949276266     -0.14776048803389
  C   3.44201790200804      1.17323266206969      0.09144781321731
  C   3.16236002257085     -0.18995504204361      0.23350352513023
  C   1.78236149940587     -0.34315516247848      0.08150734725349
  N   1.24639283667571     -1.55690000242344      0.04356794220401
  H   -0.80582247830370     -3.85264146008710     -0.53199970843400
  H   0.88692190360420     -3.83529219694669     -0.40608329219369
  H   -2.02418822451002     -2.22869489044647      0.42271797405382
  H   -4.52149760000001      1.43297927303695      0.23339187202293
  H   -2.37383441987520      3.00140904894198     -0.27515421951366
  H   0.09325716905673      2.69058842298857     -0.38898459658031
  H   4.41480683252021      1.64231245936991      0.14621029985429
  H   3.85609702917886     -0.99939907399197      0.38876443950920
