28
Coordinates from ORCA-job ./opt_b97-3c_parallel
  N   2.11728118839994     -2.35922727569446     -1.02659198181666
  C   1.38350402055643     -1.42032752031345     -0.35703334551721
  N   0.17245838606743     -1.81741381008607     -0.05602591872056
  C   -0.96602658528255     -1.29340464344357      0.34045162026553
  N   -1.78863656862437     -2.20811009792264      0.97392073343402
  C   -1.52285280895486     -0.02758922646702      0.06424297027117
  C   -2.91096451639655      0.25137496684809     -0.00749104085832
  N   -3.97031587799542     -0.60040572338599      0.14804961335357
  N   -3.16641924934994      1.56387952396707     -0.26071623426794
  C   -1.97555339155435      2.15425519512543     -0.33267781386127
  C   -0.88880351701378      1.26239862868287     -0.16765705440423
  C   0.40680580614637      1.73865484900828     -0.07960612731088
  C   1.64446948896871      1.13575686249878      0.10722805541907
  C   2.81098742727659      1.92156247688681      0.33213387864313
  C   3.91379067566000      1.09252572350836      0.43063716184554
  C   3.48186632425259     -0.22864953843680      0.21612244850888
  C   2.09230220092666     -0.23980188452202      0.02539982681795
  H   2.89121407502429     -2.05025504872054     -1.58389940830513
  H   1.62559924185040     -3.18056937376270     -1.33258642155403
  H   -2.40945458428790     -1.83775345905373      1.67519908133207
  H   -1.31756259707479     -3.05785145182149      1.23740442936249
  H   -3.79936082887144     -1.56933063819520     -0.06930497622910
  H   -4.82748847725659     -0.23130101007041     -0.23176802740688
  H   -1.89077502185843      3.22073121472006     -0.49065231169842
  H   0.46328092376380      2.82215205382054     -0.14236490396674
  H   2.80322352938838      2.99746192774507      0.42401317284697
  H   4.92820998262679      1.39654484392481      0.63653120202371
  H   4.10878027081263     -1.10696034104018      0.25107128259324
