29
Coordinates from ORCA-job ./opt_b97-3c_parallel
  N   4.95757692535587     -1.44192206954709      0.00035345212190
  C   3.99510087467213     -0.78420568983586      0.00010352090043
  C   2.85869378554425      0.01935294516719     -0.00009565088837
  C   1.50203691765853     -0.40498261325047     -0.00014503831517
  C   1.21181018907478     -1.75032564865588     -0.00003201190189
  C   0.06634637321921     -2.56035906650659     -0.00015896586413
  N   0.33110469746238     -3.90368775343725     -0.00020882589211
  C   -1.29794054625885     -2.24274380115527     -0.00031370922444
  C   -2.05781229054377     -1.09471429981413     -0.00030008687775
  N   -3.40590283850243     -1.25777005935284     -0.00036112934071
  C   -3.89260011226785     -0.00906247050259     -0.00029599856333
  N   -5.19996114442745      0.25888029636299     -0.00010194461616
  N   -2.97841687492128      0.99733086198933     -0.00021950957197
  C   -1.79475475816192      0.37902115690836     -0.00022744583606
  C   -0.63290405904719      1.17954577495179     -0.00026366267328
  C   -0.91100103099640      2.58206502644663     -0.00026986765467
  N   -1.14508290677039      3.71747682742066     -0.00016842401958
  C   0.73700030958166      0.87635457672644     -0.00032627943870
  N   1.58700265953396      1.92027702158025     -0.00041905507534
  C   2.84034141207309      1.43295381783478     -0.00029465404918
  N   3.89353686017441      2.25189211175005     -0.00050949881540
  H   2.12155476385220     -2.34307017398652      0.00011392891242
  H   1.27105270624650     -4.24929882122002      0.00037690757004
  H   -0.40884239907430     -4.57798418163559      0.00028948668087
  H   -1.94635720067249     -3.11178563131284     -0.00042053342810
  H   -5.51034056865760      1.21216302899910     -0.00116514722170
  H   -5.86779339485602     -0.48824822644205     -0.00131273549595
  H   3.73937865648222      3.24384327987309      0.00002705602012
  H   4.83238523052674      1.89936229434427      0.00037353865816
