25
Coordinates from ORCA-job ./opt_b97-3c_parallel
  N   -2.48703726257373      2.29926215143247      0.20457313093963
  C   -1.41846562156045      1.45783024749816      0.04877852913349
  C   -0.19151900687624      2.15525607048206     -0.05671810987177
  C   1.13660499900144      1.82421460976376     -0.16287396378615
  C   1.89524411511062      0.65956980211531     -0.09434411695655
  C   3.30006526511796      0.69183956335963     -0.14319523375896
  N   3.86457081681783     -0.52569056960958      0.00472181832538
  C   2.84247754968952     -1.37992504041394      0.15429766276081
  C   1.57895000486135     -0.74447907460666      0.10770286497881
  C   0.40040730522547     -1.46080102069507      0.17331527338287
  C   -0.94767040718438     -1.15029299109563      0.06222878771459
  C   -1.87046265394846     -2.22909034140078     -0.00134903707094
  C   -3.14792873303073     -1.74055127111318     -0.20505382347662
  C   -3.07340078578162     -0.34428478971627     -0.23233538381527
  C   -1.73938504688862      0.07845534949363     -0.06128855303392
  H   -2.30678288481197      3.26906533294507      0.38647510980536
  H   -3.33046488439834      1.94032009779080      0.60877742017646
  H   -0.33999171983136      3.23036031647774     -0.05488520599605
  H   1.76356884912886      2.70456182168886     -0.27698385447623
  H   3.91077362002160      1.57525529410281     -0.27153296910117
  H   3.01268194097901     -2.44044495883540      0.28200310256285
  H   0.56850115186607     -2.52842428408102      0.28863042964203
  H   -1.58241534076246     -3.26729138853576      0.06225776913581
  H   -4.04495349359862     -2.32435010504484     -0.33887054705107
  H   -3.91806287837273      0.29597930319786     -0.43412970096340
