28
Coordinates from ORCA-job ./opt_b97-3c_parallel
  N   4.31534921275578     -1.71148409763963     -0.03519326784976
  C   3.44931949876548     -0.93166851994781     -0.01327245673862
  C   2.43396961102853      0.02210699586475      0.01090238256506
  C   1.03388444367930     -0.20654768271674     -0.00140255733629
  C   0.53678426334286     -1.50512533443563     -0.01453078237102
  C   -0.70752346021096     -2.11938264968032     -0.04582469155885
  N   -0.67952319835452     -3.51453518304112     -0.12705418229603
  C   -2.01688640230332     -1.58845644056546     -0.07234498031411
  C   -2.60559417489365     -0.35192499641481     -0.03645479743955
  C   -4.02619234426187     -0.25738713255906     -0.05562208680440
  C   -4.39969367843694      1.07154109094716     -0.00329584996704
  C   -3.24452472729183      1.86779877916827      0.04556160789296
  C   -2.10571369762269      1.05328123000972      0.02636775362268
  C   -0.84167652633648      1.61694760094239      0.04400019089330
  C   0.45755058218684      1.13849086413878      0.02844615860639
  N   1.45057665145718      2.07972614613197      0.04880064540522
  C   2.61641998535218      1.43082031194281      0.03768679135360
  N   3.79848054352904      2.08309402968331      0.09719953090493
  H   1.34620496625421     -2.22987278806097     -0.01098764124659
  H   -1.47441126117881     -3.99445003415413      0.25905024699452
  H   0.18639823564511     -3.95105665227911      0.14007631948804
  H   -2.76258305241415     -2.37621481660679     -0.13786765244467
  H   -4.68795103495358     -1.10836156867731     -0.09959775312823
  H   -5.41381509296033      1.44104720085158     -0.00166961907889
  H   -3.21800953261283      2.94555915693339      0.08577471433236
  H   -0.85145311985603      2.70089933584978      0.07757572224257
  H   3.77882824803193      3.06787272698317     -0.10063679170830
  H   4.63452813985976      1.59055951893165     -0.16150250521934
