27
Coordinates from ORCA-job ./opt_b97-3c_parallel
  N   2.52025784834573      2.49881502031534      0.25027829844218
  C   1.53976601257929      1.54641077264766      0.11446225552683
  C   0.24018943526360      2.08687838238965      0.13553374674887
  C   -1.04442643103721      1.59774249591088     -0.00044972638133
  C   -1.64745045010741      0.35403831711652     -0.01782830264416
  C   -3.06149282633160      0.18672964905511     -0.08611999483300
  N   -4.01296572605595      1.14540155019274     -0.26987605874490
  N   -3.44769369522752     -1.09706413083680      0.11722209683629
  C   -2.31923974891415     -1.78804064998727      0.30455020451595
  C   -1.15237034000156     -0.99768526873339      0.22164291715326
  C   0.10275656362922     -1.56217066192388      0.27565993373480
  C   1.39902400279239     -1.09047403536009      0.08521908901387
  C   2.43834567739066     -2.04716053923293     -0.06542448526900
  C   3.62404398619218     -1.40428472970041     -0.38163493150817
  C   3.37260867781351     -0.02917514381434     -0.38773222488267
  C   2.01479395244209      0.22007738940811     -0.09110231181959
  H   3.40557449281383      2.21470490664235      0.62438338144938
  H   2.23838191921510      3.42953150804337      0.49756778454419
  H   0.24971367686589      3.16598930353496      0.25118819682069
  H   -1.76530499401693      2.41113642264612     -0.02651356369805
  H   -4.93192084362139      0.77310320589625     -0.44293462437298
  H   -3.77753235668916      1.93172184953053     -0.84870205129530
  H   -2.34581765675005     -2.85646045683377      0.46974085327435
  H   0.07021328702068     -2.63801605953943      0.42631457631577
  H   2.28659689653658     -3.11351206167300      0.00968172951380
  H   4.56996245810794     -1.87321717849461     -0.60260473849503
  H   4.10467316314365      0.71909514960060     -0.65010423424611
