23
Coordinates from ORCA-job ./opt_b97-3c_parallel
  N   0.03374035516486     -3.13574388710440      0.74175693243855
  C   0.02645168613621     -1.93438614768435      0.09919424855075
  N   -1.18855653542251     -1.50918648098150     -0.26436824705033
  C   -1.72432558984326     -0.31839741114840     -0.27544700955828
  C   -3.06742176416698     -0.13029898125396     -0.69166697889948
  C   -3.48767037568836      1.12549621488774     -0.28657267074753
  C   -2.43050891696127      1.79950936283551      0.35015762673365
  C   -1.28719225206250      0.99166231736031      0.33514130126891
  C   -0.02630108901891      1.50214564398039      0.57326124268318
  C   1.23965310139436      1.04140398098193      0.24367535337630
  C   2.35856382295947      1.87735672904712      0.15352553497787
  C   3.35373607688896      1.13862922235909     -0.49832806153680
  N   2.98813793314146     -0.11948859196295     -0.78294983474877
  C   1.71601789455356     -0.26085742785594     -0.31692400639458
  N   1.21838358145769     -1.46844080285486     -0.23419707932819
  H   -0.81418660484149     -3.67424146093618      0.69378990197862
  H   0.90049522731509     -3.64580106932151      0.71569659912217
  H   -3.66475425248851     -0.90569536547753     -1.14163646469354
  H   -4.47821312861865      1.52967895304049     -0.43180745544725
  H   -2.45712731242581      2.81658490394100      0.70962106670268
  H   -0.03505039048725      2.52223306520168      0.94744878107183
  H   2.40574322602106      2.91245929257122      0.45366704050430
  H   4.33934828909278      1.48989382677475     -0.77031246570384
