22
Coordinates from ORCA-job ./opt_b97-3c_parallel
  N   4.17135501431032      1.78076540555139      0.86425784072394
  C   3.28257754475117      1.09148548983872      0.56797738001784
  C   2.28013729665373      0.18513381030297      0.22053700694377
  C   2.47749146677797     -1.20726768378803      0.00528224279958
  N   3.61133683040000     -1.87724454765942      0.17938390009650
  N   1.35843795785212     -1.83502988784427     -0.42808905174141
  C   0.38284750290505     -0.91486300245264     -0.46573981982919
  C   -0.92952512502771     -1.34604005453207     -0.60025275672987
  C   -2.12291548299568     -0.72580081103405     -0.27026499483168
  N   -3.21722494941039     -1.47099203656489     -0.05351493935089
  C   -4.06460528370132     -0.62764601332720      0.59074227360933
  N   -3.66909385353954      0.62940120754151      0.78782533185662
  C   -2.44760814271446      0.68293964015472      0.19657428586664
  N   -1.87888742461494      1.82398025912800     -0.05615778282704
  C   -0.70526321363035      2.15506435967900     -0.56211878425196
  N   0.49255839264588      1.65455128157969     -0.37830019668569
  C   0.95126492235670      0.44793311576385     -0.14710567173335
  H   4.44271534939507     -1.41970226335508      0.50813034335082
  H   3.64498657705576     -2.85613631213678     -0.04353360770244
  H   -1.02227122293548     -2.41034904624608     -0.77477021059644
  H   -5.03277390802279     -0.97170060731255      0.92583308901854
  H   -0.71106037611063      3.10354195301312     -1.09289550980291
