30
Coordinates from ORCA-job ./opt_b97-3c_parallel
  N   -4.25923711306882     -1.28014885102995     -0.40003092174865
  C   -3.40368228243646     -0.21915649655897     -0.20870641691999
  C   -3.80409051407545      1.12071161786099     -0.07204029568005
  C   -2.66927381083950      1.88365729414936      0.15710772084844
  C   -1.51802101772010      1.06163258420855      0.15802959384840
  C   -0.25819660152167      1.61681175184083      0.27705350911107
  C   1.05291949673865      1.16434420488341      0.17743231663843
  C   2.07067798000826      2.14646665152020      0.11185694139099
  C   3.29385330812566      1.55724426180940     -0.13852245265042
  C   3.09968782124610      0.16913675567644     -0.20158321610759
  N   4.14207112699695     -0.72414656830823     -0.41785947017310
  C   1.71891429114779     -0.13567078561790      0.02738656889566
  C   1.24526689102524     -1.44820945415913      0.24636766124351
  N   2.21777709588872     -2.42887766108255      0.39641053291869
  C   -0.06030211173035     -1.98163663895243      0.29161696271391
  C   -1.34735251577715     -1.52599666443161      0.08532346307028
  C   -1.98541155417739     -0.30444625460584     -0.04132072945017
  H   -3.89770932827160     -2.04540970642730     -0.94343994500281
  H   -5.18697425067180     -1.02505268304020     -0.69307333099929
  H   -4.81802735942974      1.48334067792434     -0.14968055652700
  H   -2.64538718924077      2.95635442755613      0.28053769958593
  H   -0.30016761241676      2.69488648259430      0.40651930495454
  H   1.88300658481335      3.20658852044645      0.19081754209531
  H   4.23829606032996      2.06007537477846     -0.28402856460446
  H   3.89165544124522     -1.53375757552275     -0.96644176528408
  H   4.96416070815602     -0.27546046668026     -0.79020845901040
  H   1.88135391107512     -3.30979551244572      0.74422205380114
  H   3.08146485768691     -2.14000070184007      0.82910296001775
  H   -0.04478936835340     -3.05459078749149      0.45563901370923
  H   -2.04692302655339     -2.35827351165423      0.09600870241474
