31
Coordinates from ORCA-job ./opt_b97-3c_parallel
  N   4.11395890441161     -1.68201738777120     -0.46476558021145
  C   3.25339410178242     -0.67029638947204     -0.21372660008666
  N   3.75267075283095      0.54299864810513      0.08686257586668
  C   2.67617745728889      1.31223752006930      0.34759366066805
  N   2.85638414309675      2.62811618901841      0.63271828944982
  C   1.43359920094089      0.62310497901247      0.21562681791064
  C   0.22095562393351      1.28636100314640      0.13164520316100
  C   -1.07596189356349      0.84852942287871     -0.05886823658677
  C   -2.15407903729975      1.76900529517758     -0.26967749752849
  N   -2.05965706732172      3.12100469255372     -0.41084398179572
  N   -3.36092037679581      1.18864250173282     -0.27805161812455
  C   -3.12750050881874     -0.12608621307664     -0.05883493463786
  N   -4.18796482351082     -0.96601516489910     -0.00158245221127
  C   -1.73682595876058     -0.44079301567402      0.06386644775057
  C   -1.24243273753224     -1.74306844450621      0.25433083334680
  N   -2.16262993916940     -2.68274344726258      0.75629634556672
  N   -0.09925014223878     -2.32177282295871     -0.07760616920410
  C   1.11782452690776     -1.90261472960762     -0.35407333643973
  C   1.82038588989852     -0.73070056998035     -0.13027218146545
  H   5.05566119504653     -1.41004372003281     -0.68674310633840
  H   3.77796548440491     -2.51743962262270     -0.90654081316958
  H   3.80854069654111      2.88588019369714      0.82978007166980
  H   2.17323214242937      3.07407659070130      1.21769786060998
  H   0.31052301568202      2.36788824515805      0.19334068602495
  H   -1.23689231853413      3.47904520865270     -0.86149552793779
  H   -2.91403332992495      3.55760168989370     -0.71427174385539
  H   -3.99132330613785     -1.94859366314332     -0.12387918396802
  H   -5.03257031233667     -0.60726861217192     -0.41493916535634
  H   -2.65053737642060     -2.37944302434852      1.58644775483403
  H   -1.70957406724339     -3.57468632589061      0.88677791929809
  H   1.72166131931315     -2.71333305857908     -0.76526216093982
