29
Coordinates from ORCA-job ./opt_b97-3c_parallel
  N   -4.40932407408476      1.07428212530144     -0.19185184455315
  C   -3.36610449191941      0.22699529036864      0.02028830232024
  N   -3.61192562489652     -1.02185041878089      0.47782532192497
  C   -2.40849245139676     -1.60419284174818      0.55763115284082
  C   -1.33163532091564     -0.76891762420184      0.18781434417481
  C   -0.01177385168361     -1.24918701499571      0.00626533407104
  N   0.13293274549461     -2.63629391358554     -0.03981596904011
  C   1.17028277541943     -0.51005529683107     -0.14115239078827
  C   2.46881938479848     -1.08713106068035     -0.28476990888979
  N   2.80084756602854     -2.36788997396466     -0.59361675158935
  N   3.47763877725898     -0.22581792691974     -0.02282037901366
  C   2.89358954000543      0.94132720447717      0.26826118043272
  N   3.66859149966146      2.01419935794583      0.53365371945105
  C   1.45447779395398      0.89642820801237      0.14484877818016
  C   0.74361769933297      2.07317125432908      0.05855946850898
  N   -0.43426555509330      2.42340214572294     -0.45193291321662
  C   -1.53621616678384      1.73212200085680     -0.61476014343271
  C   -1.97345104465506      0.48357621516441     -0.16565818221764
  H   -4.24801479376265      2.06093673318429     -0.11129332272196
  H   -5.28246039985373      0.75879360852892      0.19542445291807
  H   -2.35508423834640     -2.62135837220545      0.92216706847056
  H   -0.72188359087445     -3.15445337111004      0.04819253421695
  H   0.87016491996566     -3.01551468115435      0.53584740707708
  H   3.76657845164535     -2.48417520742387     -0.85468840389184
  H   2.13215687056901     -2.88747417120631     -1.13934775494764
  H   4.63993427158276      1.82109529561900      0.70334289052476
  H   3.28088822391395      2.80135340217797      1.01869649322203
  H   1.30587538031431      2.95668292935933      0.35787902521544
  H   -2.29753159867881      2.30297929335943     -1.14880541524713
