20
Coordinates from ORCA-job ./opt_b97-3c_parallel
  C   0.00004107551029      2.37719686360320     -0.00077044536663
  C   1.28096279484748      1.84632901031206     -0.00064695873334
  C   1.81908471876742      0.56443207495625     -0.00041248201035
  N   3.17183748981444      0.45804607128945     -0.00048070710758
  C   3.40393915404359     -0.86406262224550     -0.00034658364184
  N   2.32653193960926     -1.66242154248642     -0.00016362425878
  C   1.27318409394438     -0.80603020598003     -0.00019115684122
  C   -0.00003559734970     -1.35194545135594      0.00013542499017
  C   -1.27323271315887     -0.80597792288076      0.00025697350842
  N   -2.32661585104186     -1.66232587798003      0.00068734558169
  C   -3.40399023830755     -0.86392249107390      0.00064770439290
  N   -3.17183414779191      0.45817676654695      0.00017930847208
  C   -1.81907708838468      0.56450697916169     -0.00006248748148
  C   -1.28090258422133      1.84638178706200     -0.00056041605875
  H   0.00006340450131      3.46038260339629     -0.00108213534744
  H   2.06806347316520      2.59129131808037     -0.00081498248297
  H   4.40702057847527     -1.26392188442395     -0.00037157183433
  H   -0.00005758951194     -2.43502556651830      0.00036424793167
  H   -4.40708822805014     -1.26374036370416      0.00096034808441
  H   -2.06797256686066      2.59137660444073     -0.00075272239662
