34
Coordinates from ORCA-job ./opt_b97-3c_parallel
  N   -1.86780243226022      3.78832830019396     -1.29161170638374
  C   -1.63502591303430      2.73280680548353     -0.85117436054425
  C   -1.39536558518334      1.45265235618730     -0.31754029379855
  C   -2.44844247664544      0.53708944177549     -0.41195034793880
  N   -3.60957530814038      0.97736782306212     -0.97010222682241
  C   -2.50890797771576     -0.79781742282644      0.10341061749881
  C   -3.71887999957655     -1.38971935647327      0.48917899043942
  C   -3.51969516807248     -2.76626952934941      0.72235241489340
  C   -2.20266807101480     -3.05720218246290      0.43724012872618
  C   -1.51877576303305     -1.85110227233604      0.08515671086538
  C   -0.16326144043514     -1.88003716195958     -0.20174890741569
  C   0.83436210630935     -0.92224850601085     -0.22903646784445
  C   2.18963586290490     -1.32198098577462     -0.40313901588772
  N   2.62713144492149     -2.51670418999849     -0.85800343934527
  C   3.04632957298389     -0.29695496325554      0.05708128443739
  C   4.43802944969614     -0.29417005161092     -0.02461633176675
  N   5.60135827677185     -0.29197617349305     -0.09606529026251
  C   2.24913407136513      0.77660130745877      0.50350099033817
  N   2.77543409677265      1.94989501221749      0.93738098058063
  C   0.86359934803493      0.44444991426972      0.30637906416347
  C   -0.14967728146478      1.37786184380913      0.44055321523546
  N   0.10809171438685      2.50566784978513      1.19715331526900
  H   -3.66117271212656      1.90021033249369     -1.36641449112409
  H   -4.24217310004005      0.29215523934686     -1.33647052479357
  H   -4.65056915419548     -0.86185739446621      0.62642319827541
  H   -4.27129058530540     -3.45992891333585      1.06520958627870
  H   -1.72383829277764     -4.02242176976956      0.50987679578816
  H   0.20659041605754     -2.89449809911992     -0.32628388236850
  H   2.04352792952714     -3.03546034002034     -1.48814469880820
  H   3.61511672526427     -2.62948096534370     -1.00616216892884
  H   3.74884946423270      2.09735918756049      0.71933791230659
  H   2.19596034787258      2.76920955343830      0.82640302649983
  H   -0.66931990172098      3.13207021431678      1.32154925847410
  H   0.63259745834050      2.35957763230775      2.04411342666317
