32
Coordinates from ORCA-job ./opt_b97-3c_parallel
  N   -5.37351894737956     -0.26767856731084     -0.52465481597337
  C   -4.23576520605743     -0.12224861325660     -0.31570860720274
  C   -2.87470842021454      0.04870662239060     -0.06890305487353
  C   -2.14202675273754      1.23856575143892     -0.24472366952961
  N   -2.70494921275473      2.44076014060043     -0.54278274479170
  C   -0.76317953540764      0.98961807892689      0.01511294317596
  C   0.07187186960586      2.07110331773192      0.25679652613101
  C   1.40491924468196      2.26724857564120      0.56528839503748
  C   2.54396138021269      1.47747317217211      0.37935568961731
  N   3.72714480282173      2.08171619017932      0.67265437967349
  C   2.64173003974962      0.15474494572646     -0.13789638479879
  C   3.80116717808437     -0.33156488166046     -0.78518981358163
  N   3.72472731057529     -1.63761721662476     -1.07762342256815
  C   2.54409122175068     -2.05069639686857     -0.57135897747221
  C   1.80143110859111     -0.99866372843949      0.00033815601396
  C   0.48659367706453     -1.23410345145710      0.51531662298704
  N   0.32144453808103     -2.47842499769519      1.08601995447371
  C   -0.64881333018211     -0.44421972034488      0.32529219600618
  C   -1.96729212127375     -0.97697770852661      0.28680153271606
  N   -2.36229266812955     -2.27307472299076      0.47754328954146
  H   -3.68222931896545      2.42956317441314     -0.78201184959762
  H   -2.16473467485653      3.07902162852680     -1.09866689322926
  H   -0.47692829705850      3.00904892297318      0.28447608216665
  H   1.62313030444271      3.27302370649455      0.91035729510517
  H   3.78492187051258      3.07836855965685      0.77234061268969
  H   4.58587893356016      1.57257846226240      0.59133842589712
  H   4.65650369843928      0.24809792496497     -1.10489294805427
  H   2.20729783941647     -3.06671689769246     -0.72072746179225
  H   1.17553328410457     -2.91478409337648      1.38495364573857
  H   -0.42890376235360     -2.57540959928988      1.75000674379481
  H   -3.29363412053578     -2.47996206203651      0.15032910444830
  H   -1.69041340168790     -2.97958433602951      0.21809719305089
