36
Coordinates from ORCA-job ./opt_b97-3c_parallel
  N   -6.11648396248977     -1.36830961437605     -0.13102587850371
  C   -5.02070796177274     -0.96887174262934     -0.09526143898526
  C   -3.71374120253877     -0.49286484400375     -0.05393692511911
  C   -3.28666590607910      0.81288086518304     -0.39626840500443
  N   -4.13822771317136      1.78821204405577     -0.78557810434917
  C   -1.88038485365088      0.92542954420050     -0.17856975170751
  C   -1.25305386021892      2.15885069153928     -0.20794033863881
  C   0.00175958450891      2.64544567495458      0.11235577408313
  C   1.28184225890643      2.11731977447845      0.33882483296836
  N   2.22835014830043      3.10073387503144      0.69284139001021
  C   1.80528126764187      0.81898184134191      0.17101719990119
  C   3.20509589958890      0.57316174282105      0.02147223340166
  N   4.22930607895085      1.46205077880704     -0.02332638729641
  C   3.43369955895674     -0.82121463064372     -0.10501112310539
  C   4.66182570807684     -1.42475710829519     -0.35923770149020
  N   5.69068857495898     -1.92950700688596     -0.57818184548032
  C   2.18703282810873     -1.46384460100877     -0.04924719982909
  N   2.03604576389669     -2.81454252102864     -0.12913441800232
  C   1.15214041100377     -0.49214408869870      0.12630252198731
  C   -0.14808252782925     -0.94786598253627      0.28454081773714
  C   -1.41283108859355     -0.39270395782008      0.22447096239990
  C   -2.57056553631828     -1.21840239600288      0.35020998618098
  N   -2.60428543304235     -2.52382012893598      0.71595785641490
  H   -3.77860844201292      2.56943711381199     -1.30177290852084
  H   -5.07660047292716      1.51890547657172     -1.02591597771885
  H   -1.93808429097917      2.97718602313690     -0.41046328663904
  H   -0.00121750484154      3.72935149538937      0.17636780289766
  H   1.81005859242336      3.99409271339199      0.89410965395772
  H   2.83252332650633      2.82304661267111      1.45238133023597
  H   3.98783212434617      2.41684428497084     -0.24310684166860
  H   5.09410991885487      1.12328327189801     -0.41341406779602
  H   2.85672318758364     -3.33282098324468     -0.39581586307907
  H   1.19508886719418     -3.16285830954117     -0.55324765390342
  H   -0.18219853953243     -2.02394082188434      0.42606109262581
  H   -3.51195761939067     -2.92729419798202      0.87618774865723
  H   -1.89381649071894     -2.85596361153767      1.34272280467888
