22
Coordinates from ORCA-job ./opt_b97-3c_parallel
  N   -4.31104932031805      0.87942409492692      0.24636159347788
  C   -3.05551445742698      0.42860286378306      0.08479530673302
  C   -2.61209811029154     -0.90908185524132      0.25527273308585
  C   -1.27299369272379     -0.92010092012715     -0.06932043746777
  N   -0.60684480635782     -2.05395421305781     -0.29424571980810
  C   0.66098552717462     -2.32406761314855     -0.39357564580017
  N   1.76917420219313     -1.71341442736151      0.05820018516690
  C   2.09931932745539     -0.46824287486587      0.15548191055751
  C   3.39553862744062     -0.08327403328277      0.60865529633499
  C   3.60116750014569      1.23577934407441      0.27994405607470
  C   2.43513519516338      1.79203853035845     -0.30787532344893
  C   1.43504713664474      0.83668423654202     -0.35960625566080
  N   0.17714888845146      1.18834344704694     -0.57170776180203
  C   -0.94065427998403      0.54099519390198     -0.37481070615914
  N   -2.08782781681099      1.26281726676711     -0.32903311238350
  H   -4.99004238133036      0.33308242609833      0.74177327676788
  H   -4.46421680189524      1.87028840245902      0.17854879481903
  H   -3.20933838749248     -1.77725428560756      0.48200481443963
  H   0.87349173176757     -3.31535846093483     -0.78660641538647
  H   4.11326640520746     -0.77889913765151      1.01027872016639
  H   4.52008803859259      1.77976799608349      0.44286134077086
  H   2.28889980339475      2.82364466903646     -0.58250047707776
