33
Coordinates from ORCA-job ./opt_b97-3c_parallel
  N   3.60486681188612     -2.99969379845387     -1.20038671118099
  C   2.81735424865608     -2.25473332367370     -0.78029285880504
  C   1.85407794145084     -1.34408894315959     -0.26859950754360
  C   2.29185253185925     -0.01848984754640     -0.24835253554791
  C   3.60543616550902      0.33080234126826     -0.57016268810784
  C   3.84134732124606      1.66047673475891     -0.17700389130174
  N   5.00695063321040      2.31203343209379     -0.28549251348917
  C   2.64741309583126      2.20760227086795      0.35239072690507
  C   1.64020731427671      1.25693053956131      0.27391360729650
  N   0.39336376274668      1.64575837924990      0.44837408065219
  C   -0.76552255572069      1.09221261997031      0.21144494373795
  C   -1.90684162011252      1.93916765986937      0.10178588115602
  C   -1.91815047689561      3.33235045917070      0.17858478204761
  N   -2.00968280240671      4.49146626041346      0.23186964603549
  C   -3.02739383225200      1.15459564451134     -0.21223684811951
  N   -4.25583061331015      1.58859517648234     -0.48432190865355
  C   -2.62659394396692     -0.22019173972692     -0.22156478291475
  C   -3.53923526511795     -1.22383173391350     -0.55662966621928
  N   -4.37858277172184     -1.95681747446822     -0.89348955405166
  C   -1.25154070930129     -0.30998034499079      0.05423475947992
  C   -0.62946334335438     -1.52702709750865      0.41295740366545
  C   -1.51692642861476     -2.50123246078777      0.93908007072203
  N   -2.15966550463929     -3.33171128942037      1.43852074148652
  C   0.70419985729803     -1.99935539096768      0.29600560230601
  N   0.92408695021658     -3.27816335407872      0.68984545212038
  H   4.35869273054783     -0.34366916910478     -0.94181403400578
  H   5.80096334162759      1.88827457172346     -0.72844431544231
  H   5.10535359977659      3.25777582660317      0.03271218176567
  H   2.47802410092923      3.23113611082353      0.64262623602442
  H   -4.99091211519742      0.94174604288245     -0.71190198920807
  H   -4.46948169045955      2.57005659357492     -0.46713492350558
  H   1.82479644746506     -3.70176280932182      0.56100216622596
  H   0.15431591013723     -3.89670203890077      0.87856841337056
