21
Coordinates from ORCA-job ./opt_b97-3c_parallel
  N   0.06367145714215      3.45273402444310      0.20089299263684
  C   0.05291918921889      2.10107033102955     -0.00882471133301
  C   -1.23417907362907      1.55047874907111     -0.25797366474240
  C   -1.73609411291035      0.28412357500140     -0.20356271785673
  N   -3.08700434732699      0.13282313842210     -0.38740986770456
  C   -3.31342980001109     -1.13653215883224     -0.06796169954778
  N   -2.24672556522382     -1.89129044064659      0.28993915255089
  C   -1.19579371101672     -1.06139068627856      0.20261001561098
  N   0.01191332344937     -1.57029648670320      0.39502840347651
  C   1.19933205612867     -1.06385843067440      0.25215511057290
  N   2.25111347957295     -1.91879071596083      0.30357436472788
  C   3.34299464970495     -1.21961265328335     -0.03961896018990
  C   3.10808383618958      0.13231677946950     -0.29558695498611
  C   1.74831020229018      0.35477190690378     -0.08933588776048
  N   1.25431179633577      1.57033728943831     -0.09237660228113
  H   0.94863607054474      3.86104316189296      0.44612278703508
  H   -0.76258269303217      3.91371237757002      0.53551673992412
  H   -1.99383786941115      2.28431475078684     -0.50214136418951
  H   -4.30759700476137     -1.55906980972123     -0.09760018182841
  H   4.30206377303989     -1.71815267485108     -0.08179866678383
  H   3.82990225840575      0.89563609312279     -0.53398654483137
