25
Coordinates from ORCA-job ./opt_b97-3c_parallel
  N   4.20627641504737      1.61336105280559      0.95179247485735
  C   3.32364589482295      0.91645064413372      0.64978399708635
  C   2.32123576548883      0.01811999148341      0.28772238472848
  C   2.52430734190661     -1.36328629862917     -0.04130014452600
  N   3.68815193351830     -2.00820118552745      0.05434330448810
  N   1.41802682892272     -1.97293084636485     -0.47511516139480
  C   0.40940682240741     -1.06358064232281     -0.41527490684016
  N   -0.81093955480095     -1.47790686599072     -0.61763715908343
  C   -1.97983646696387     -0.94635966794145     -0.29023434371976
  C   -3.12526865985230     -1.71517466763228     -0.24825341822861
  C   -4.14504962856337     -1.02378519729621      0.46712475276819
  C   -3.70067832536428      0.20191766131073      0.89186521203745
  C   -2.38714577923399      0.40425900818086      0.36465854174398
  N   -1.86692773762034      1.58060726365264      0.30274423590473
  C   -0.70464708038082      1.97685580850009     -0.27535374115807
  N   -0.82113146904610      3.13220391113501     -0.97074078884279
  N   0.51127144895277      1.51104263374335     -0.11796356372131
  C   0.98354937773145      0.28836861500542     -0.00919389780514
  H   4.51613729844652     -1.54433913037974      0.37994609646381
  H   3.74379143336301     -2.96512842942542     -0.24397882869652
  H   -3.17479435942519     -2.73189301733628     -0.60097249517354
  H   -5.13351986916966     -1.42035330364421      0.64787590584122
  H   -4.26710542509748      0.96989856769685      1.39123768999235
  H   0.02879938265902      3.61050459462969     -1.21411514214150
  H   -1.65225880794785      3.68031832551196     -0.83744009677899
