26
Coordinates from ORCA-job ./opt_b97-3c_parallel
  N   0.49935667236014     -3.69442941606846      0.64038229162091
  C   0.18103986725602     -2.59662765175574      0.44287452385291
  C   -0.07865938419249     -1.20720953661587      0.22497350364716
  C   1.07275474544262     -0.40858451034929      0.17473665883605
  C   2.34617785980124     -0.95760855870011      0.18392669411333
  C   3.30431765822821      0.05292149869497     -0.07391259975004
  N   4.63177364439023     -0.15303493850113     -0.13626457890891
  C   2.64640801157059      1.28156103567197     -0.21104897334323
  C   1.27136954400294      1.09545594466323     -0.03444475739760
  N   0.50503491336239      2.15719755513107      0.02750657329037
  C   -0.78214029237511      2.43118262690415      0.14706334437796
  N   -1.01052848375283      3.74299922509666      0.49371833807214
  C   -1.94298676823399      1.66794876663970     -0.09113433979044
  C   -2.20500582440903      0.32603391696168     -0.20135469853630
  N   -3.50542356934970     -0.04342375858714     -0.43133361406848
  C   -3.48956921329916     -1.37086310333247     -0.33715996245663
  N   -2.30263881676510     -1.94993687403268     -0.06431625936921
  C   -1.43595525629012     -0.91815856697019      0.01523118515512
  H   2.57135375247003     -2.00381438557416      0.30774066503099
  H   5.24624610611025      0.56935428688101     -0.46215597602366
  H   5.00234421461700     -1.08488939546234     -0.10960547407078
  H   3.10152571318941      2.24914929816938     -0.34130560867801
  H   -1.92279003992381      4.13829505030975      0.35436940072856
  H   -0.22983726829829      4.36543366246847      0.37944923384664
  H   -2.84806011017681      2.25393167840159     -0.20316839785858
  H   -4.38260462603872     -1.96358976844104     -0.47333240702301
