25
Coordinates from ORCA-job ./opt_b97-3c_parallel
  N   -2.91150654275195      2.94024914839448      0.00677867919994
  C   -2.47558865715000      1.86048483391809      0.00444561745560
  C   -2.03641075533513      0.53456120557063      0.00204248581163
  C   -2.93581131926558     -0.57538574629230      0.00103055133220
  N   -4.27374107140954     -0.46140342264047     -0.00121760804647
  C   -2.17360097472375     -1.74221040149767     -0.00007480212899
  C   -0.80476435615015     -1.42668257330161      0.00027080740694
  N   0.05378605593280     -2.43248426263931     -0.00023040475207
  C   1.36693217259935     -2.54245574862817     -0.00006464774674
  C   2.46464180889595     -1.67638110326629      0.00033848835265
  C   2.65125946665915     -0.30575786079329      0.00092314840959
  C   3.93237315164332      0.27924384402349      0.00096880208979
  C   3.74448470895333      1.65388557596910      0.00164372565245
  N   2.43935928333051      2.00391692143819      0.00214432621007
  C   1.72744534419573      0.85082143062480      0.00169496767224
  C   0.34716678687646      0.96858505319987      0.00210562203080
  C   -0.70313962867810      0.07055302777505      0.00151918305039
  H   -4.86417304086915     -1.27036861087287      0.01013484917453
  H   -4.71361194325603      0.44091615867275      0.01024603610032
  H   -2.54241993769257     -2.75438575903592     -0.00127017323795
  H   1.67477912421303     -3.58597299747563     -0.00045222048390
  H   3.39938773284404     -2.22867520007312      0.00009484622595
  H   4.86870050675508     -0.25588205224861      0.00050234653094
  H   4.50832998931366      2.41789489153969      0.00179496647271
  H   0.04759025506953      2.01136045803914      0.00282741681738
