21
Coordinates from ORCA-job ./opt_b97-3c_parallel
  C   3.46587343921329     -0.93602613112847      0.00096848325841
  C   3.16957600384557      0.41904826726251      0.00324464716994
  C   1.76758546297308      0.61471526074273      0.00399708158430
  N   1.31762059030868      1.84405948681482      0.00610699460419
  C   0.09485778644982      2.36457066837251      0.00736630897446
  C   -1.19655451241726      1.85560684154390      0.00702973225344
  C   -1.77152716726195      0.58960652123536      0.00516831010089
  C   -3.16095419687531      0.41936906552407      0.00537761921647
  C   -3.40471796774564     -0.95759390908748      0.00314890132101
  N   -2.28098541472139     -1.68340440574253      0.00154876657281
  C   -1.23741941461511     -0.80162073353829      0.00266534904550
  N   -0.03467540217424     -1.32816234963753      0.00140796714302
  C   1.16826614702945     -0.79998077546709      0.00189895273038
  C   2.27239084443341     -1.66664138994540      0.00015312253307
  H   4.45763100653790     -1.36161630731487     -0.00002470479336
  H   3.86832200728856      1.23985699845816      0.00434696624054
  H   0.12277798676958      3.45054489541725      0.00909036892646
  H   -1.93615165029369      2.65059456651154      0.00860009832106
  H   -3.89355786022406      1.21217188236279      0.00696103321545
  H   -4.36917279876225     -1.44493823295764      0.00266387820653
  H   2.16794424144145     -2.73957045632634     -0.00155760972462
