26
Coordinates from ORCA-job ./opt_b97-3c_parallel
  N   -0.38073772458975     -3.46740947659401      1.36344752801855
  C   -0.16968948627881     -2.40605727291333      0.94369123590129
  C   0.08151856085490     -1.09357214505652      0.44517722983309
  C   -1.08014077644771     -0.33737777305769      0.21135667456186
  C   -2.34804989134459     -0.89583565862619      0.16788468790719
  C   -3.25019324056447      0.04455554931972     -0.39833909956590
  N   -4.54835650664317     -0.20956198221041     -0.65015317815030
  C   -2.57107456507086      1.23951266369773     -0.67043151427354
  C   -1.24554399404087      1.10397841101082     -0.24618139904333
  N   -0.47816222693911      2.15184545303031     -0.06987475078270
  C   0.80108000441547      2.26464333634003      0.26803422037385
  N   1.09461745719692      3.30497629832818      1.08968894766939
  N   1.85946715199386      1.63395355962670     -0.23004933091150
  C   2.10473931000286      0.37672278365276     -0.45246807990892
  N   3.29279288468697      0.03230073548630     -1.02054152044230
  C   3.43215745589751     -1.28078416928022     -0.80542166680418
  C   2.36342513761025     -1.86974534639361     -0.11170457906663
  C   1.41444831130649     -0.86563382849502      0.06953615728459
  H   -2.59057438566310     -1.91956111757656      0.40226108843206
  H   -4.99018604247315     -1.01941385865565     -0.25631943430499
  H   -5.15405150507965      0.51959133642408     -0.97761114125220
  H   -3.00689435868005      2.16864599785843     -0.99807518820894
  H   0.37089604313742      3.98628987559204      1.23902045648875
  H   2.04676261920909      3.62806008967376      1.09160741010801
  H   4.31369239716835     -1.79548145102094     -1.16300845812295
  H   2.24669276913492     -2.91333429546278      0.12761570246010
