28
Coordinates from ORCA-job ./opt_b97-3c_parallel
  N   -2.94772931891059      3.09146247874443      0.07862701992975
  C   -2.60751502216805      1.98039268104856      0.00136940898517
  C   -2.40838035912576      0.59797356740458      0.00439351838703
  C   -3.40393652568679     -0.25438464537235      0.60350759044597
  N   -4.56421726696538      0.20250738117987      1.07099632455332
  C   -2.95410527199415     -1.57921319302662      0.59048780389320
  C   -1.70249947406939     -1.61740570804158     -0.01473476690167
  N   -1.20660763437035     -2.73282782501783     -0.51220911605061
  C   -0.01118294916198     -3.06476923115026     -0.93021026548041
  N   1.17940572117282     -2.72308683828164     -0.49025112692493
  C   1.68146926175204     -1.61924575498722     -0.01517421171966
  N   2.89658754665486     -1.64248403448853      0.57688896210938
  C   3.31534579831012     -0.37826409087941      0.62591102225990
  N   4.47742327660833     -0.03163119312078      1.16760848542825
  C   2.37496185061911      0.55701984391156      0.04680271380473
  C   2.61868518230290      1.93119778569124      0.07956068211295
  N   2.97292031164976      3.03483699498439      0.18757599351463
  C   1.24836312455304     -0.19648780198985     -0.27866230013034
  C   -0.01971757725464      0.33429353877229     -0.61339296836945
  C   -0.00231221324518      1.65627322420984     -1.13582490706930
  N   0.02818609928375      2.67813907352715     -1.68616202683391
  C   -1.28325302504485     -0.18480872335903     -0.29366636453027
  H   -4.78572487767122      1.18287466206574      1.01561238581249
  H   -5.20275765635514     -0.39729415599282      1.55918348546166
  H   -3.53130777487185     -2.45292461261415      0.84143626577359
  H   0.00062985305982     -3.88601114879613     -1.64308578987198
  H   5.06363604921649     -0.73898051229689      1.57350192026751
  H   4.78726626652496      0.92425287577793      1.16509218923600
