30
Coordinates from ORCA-job ./opt_b97-3c_parallel
  N   0.10612090417952     -3.70347580067634     -0.12517904041732
  C   0.08550023761995     -2.54366604899882     -0.07903254375918
  C   0.05335066709783     -1.11508672127539     -0.02543800389486
  C   1.33451734153240     -0.54459081417415     -0.01588297855581
  C   2.48631895339221     -1.34294229332830     -0.03179239271092
  C   3.62598020332329     -0.52689603367251      0.01140509576259
  N   4.91327301510390     -0.96620600826556     -0.02964638936821
  C   3.21529110825049      0.81441721776556      0.04360629414284
  C   1.81557414130374      0.87876358595947      0.02731497437081
  C   1.21083474314084      2.12421099325711      0.02855437383831
  C   -0.08086057086002      2.64889944448880      0.01857862288744
  N   -0.13179614892843      4.04776461772731      0.05748221185241
  C   -1.33838598718333      2.03883544003927      0.04454311906561
  C   -1.84526706057218      0.75799160997843      0.05729685554594
  N   -3.20712908809695      0.67567467122759      0.08564756648591
  C   -3.51878753031196     -0.62814832164288      0.06986311573757
  N   -4.81329718468701     -1.02809334918880      0.14094463760314
  C   -2.38101276351028     -1.45474459346085      0.02685427621021
  C   -1.26964615888723     -0.61328145945004      0.01529176692281
  H   2.49723388974256     -2.41925818723179     -0.06272944075430
  H   5.08394274747198     -1.93084832611796      0.19272212039190
  H   5.63431269756129     -0.33760538166028      0.27623700263594
  H   3.86738405612965      1.67407214783651      0.06457733926736
  H   1.96104274227241      2.91012104621945      0.05202213457540
  H   -0.98946005398715      4.45553468468926     -0.27352343447345
  H   0.67268625300173      4.52099209176926     -0.31730097472862
  H   -2.15934847953179      2.74720049620247      0.07362121189942
  H   -5.50261729604587     -0.32194988688902     -0.05144902023992
  H   -5.04224647091461     -1.95578476892347     -0.16596473698870
  H   -2.36943459120700     -2.53108794810433      0.01453644059568
