29
Coordinates from ORCA-job ./opt_b97-3c_parallel
  N   -2.90514085505918     -3.10241691049757     -0.31291090500111
  C   -2.59670309565061     -1.99173086522111     -0.15328044511454
  C   -2.43547768795352     -0.60891359660372     -0.03021574589815
  C   -3.54327588541082      0.27098347794226     -0.21226182098329
  N   -4.80628037434723     -0.09903964057777     -0.42196989127561
  N   -3.17697240326346      1.55879638076300     -0.15857250052693
  C   -1.83384831787267      1.58998645814759      0.00112922569827
  C   -1.27950860272072      2.85683804213453      0.14556139939313
  C   -0.00017371491896      3.37167028355991      0.24164810851180
  C   1.28008077886438      2.85511537936451      0.17026757107306
  C   1.83539054066727      1.58753006705709      0.03635945687093
  N   3.18127602992171      1.55452986802904     -0.09755550248820
  C   3.54678920979414      0.26621970178965     -0.14443278467664
  N   4.81302308073847     -0.10549505207678     -0.33020352220499
  C   2.43450184275852     -0.61218957220285      0.01620700565677
  C   2.59619448389549     -1.99521172331314     -0.10391054965839
  N   2.90601914007815     -3.10632299506349     -0.25778604326572
  C   1.29251293328047      0.20584055542317      0.12043625504442
  C   -0.00359831951838     -0.30839895604239      0.34051291961884
  C   -0.00971238604268     -1.62440915220577      0.88847286028756
  N   -0.01594738986120     -2.62825674533215      1.47196103482452
  C   -1.29456778219818      0.20757353775699      0.09574658140450
  H   -5.05593969042105     -1.06947511685124     -0.48995378126485
  H   -5.50376241627511      0.60106186821560     -0.59659208188139
  H   -2.05797738555330      3.60929116339489      0.14202624832235
  H   -0.00037993004411      4.45102173762354      0.33913496079700
  H   2.05948606022454      3.60651922502191      0.18180823993323
  H   5.51493459191874      0.59370179544207     -0.49004341332192
  H   5.06287741346931     -1.07627104487767     -0.39231398757461
