28
Coordinates from ORCA-job ./opt_b97-3c_parallel
  N   -0.07325453763056      3.43661125686591      0.00611747958798
  C   -0.06124599330946      2.27616655232275      0.01481252068249
  C   -0.03937195129167      0.84422947313150      0.01972730092084
  C   -1.32522285210618      0.28669861410184      0.01827067915741
  C   -2.47030665423329      1.10417796059709      0.02132768377441
  C   -3.61763546365105      0.30702664064142      0.00683550538943
  N   -4.90249065867554      0.75197796754033      0.05288351928459
  C   -3.21766427842209     -1.04491680753732     -0.00088220481634
  C   -1.82593023929671     -1.12550725359573      0.00478564395565
  C   -1.22121757602919     -2.38036647138860     -0.00615036008583
  C   0.06917464517197     -2.87129587611575     -0.00248297420959
  C   1.33917108747029     -2.31335136674788      0.01079272545653
  C   1.86343790645060     -1.03234530440647      0.02436966514109
  N   3.22114888965846     -0.94975615771842      0.02991234462773
  C   3.53576184199349      0.35570656540478      0.03419722830625
  N   4.83239278748338      0.75148556769620      0.08673605274851
  C   2.39599813245207      1.17912207364742      0.03155667091842
  C   1.28512899631188      0.33511615242595      0.02241387466037
  H   -2.46538854872259      2.18090834898560      0.03448533016053
  H   -5.63104257489115      0.12030939207127     -0.22742750006554
  H   -5.07449950354130      1.71363283712498     -0.18084699788370
  H   -3.87971823435359     -1.89749458043551     -0.00483479297392
  H   -1.96231325971790     -3.17347784730702     -0.01694455362086
  H   0.09828050197128     -3.95491977286949     -0.01110913768550
  H   2.13813513616681     -3.04506619488509      0.01367994458445
  H   5.05862996783424      1.68474922816705     -0.20490072747409
  H   5.51591738141380      0.04774451264093     -0.13326300409766
  H   2.38334617289405      2.25553143304226      0.04222519845635
