31
Coordinates from ORCA-job ./opt_b97-3c_parallel
  N   -3.11276795803809     -3.23160748273266      0.48644431493027
  C   -2.36749275905392     -2.36149697335470      0.28319673831819
  C   -1.44704186961714     -1.31588388737535      0.02052075584941
  C   -1.98677921081612     -0.02226192929045      0.11556689034240
  C   -3.32635046667519      0.18786476118059      0.44569824710391
  C   -3.66775390098858      1.52570566550513      0.17710409153594
  N   -4.88190468965795      2.08608615789404      0.39682576867223
  C   -2.52849845815336      2.19619780945461     -0.30365899017082
  C   -1.44396489293522      1.31205643368320     -0.31391277972721
  C   -0.16640863379653      1.79853812755366     -0.53848164148768
  C   1.11149425560785      1.30333316099532     -0.34240515766784
  C   2.23380797143203      2.13819734550118     -0.29727067232539
  C   3.34785319807583      1.40173355099834      0.14000761937352
  N   4.58588900074890      1.87904314362741      0.38028550705971
  C   2.95619471173129      0.05206817293659      0.33233152581133
  C   3.83437065471501     -0.98575970941806      0.63815132336061
  N   4.62122009079854     -1.80582672891051      0.89473428661875
  C   1.58227950288727     -0.07040783014128     -0.00565518102158
  N   1.03932721854319     -1.24671166867309     -0.13825157766037
  C   -0.14161346466184     -1.78646152404011     -0.34372214297797
  N   -0.06372510847110     -3.04270488552710     -0.87921699839593
  H   -4.01593376101226     -0.57548310646047      0.76614816758024
  H   -5.66632434207026      1.48324263961343      0.56812092901123
  H   -5.10217622682044      2.95662287854619     -0.05163527261274
  H   -2.46351448251208      3.25032076666249     -0.52430072198179
  H   -0.16852468474288      2.85430516599315     -0.79420393010442
  H   2.22109807567755      3.20181290583029     -0.47820599553654
  H   5.33153020903590      1.22566745638285      0.54831464649110
  H   4.85386258844890      2.76917986965476      0.00306741747567
  H   -0.87017721876514     -3.64251307844486     -0.86782982253781
  H   0.83212755638582     -3.49129474764463     -0.79203869522641
