27
Coordinates from ORCA-job ./opt_b97-3c_parallel
  N   -0.71872510823481      3.09126545145555     -1.04141015191776
  C   -0.36221613692396      2.06591591420933     -0.24118284577516
  N   0.71983224598094      2.31537330191980      0.49626121392486
  C   1.69910655750496      1.54764615231867      0.86766707116953
  C   2.09795201441395      0.26850429765548      0.44954216106503
  C   3.46865002291026     -0.06057271954530      0.44043930074955
  N   3.71857977401485     -1.22342393684735     -0.18337001334164
  C   2.50963953359237     -1.70789521086493     -0.53034536500120
  C   1.44263048430256     -0.85674107204287     -0.18016050902055
  C   0.07782102023720     -1.26702307574967     -0.14522144291430
  N   -0.14867775945495     -2.59696509820038     -0.29729490248618
  C   -1.05985742011321     -0.45586845446208      0.06700868003706
  C   -2.39468864822893     -0.94603675359075      0.20464643318498
  N   -2.80895813745888     -2.25880677892195      0.37744444524793
  N   -3.32093930310375      0.01795753815929      0.08381981898708
  C   -2.63967290284333      1.15386505007819     -0.15746116144352
  C   -1.25301516068448      0.96651585559572     -0.15699433495392
  H   -0.23264085893844      3.96674815117966     -0.96058020071120
  H   -1.47248728633050      2.99839819861956     -1.69491561745769
  H   2.40127659016031      2.04115634209457      1.53753110781453
  H   4.27259111344613      0.55869544399950      0.81370663733842
  H   2.45436460685791     -2.66178454807138     -1.03836905967042
  H   -1.05666336950971     -2.91395293833768     -0.60098445871504
  H   0.62676653025258     -3.21430983994997     -0.44011481122304
  H   -3.80497629823277     -2.28801905668156      0.54230422442633
  H   -2.30823704735169     -2.75866355178503      1.09884761477090
  H   -3.15801047886420      2.10035485476566     -0.20881516698454
