27
Coordinates from ORCA-job ./opt_b97-3c_parallel
  N   2.75662869222450      2.96246484228408     -0.12474313168566
  C   1.96000124072894      2.11846795844242     -0.07106555442296
  C   0.84076478458010      1.23421987528331     -0.01028430638775
  C   -0.40658657793637      1.91614123210231      0.06147216943132
  N   -0.34440751692575      3.28516911819813      0.17056486765171
  C   -1.72780545884563      1.43280055269616      0.05750974135494
  C   -2.39621143383641      0.23305696903078      0.00946338928160
  N   -3.76425319261758      0.32372797083900     -0.00224665677277
  C   -4.23104029719064     -0.93263833985696     -0.03003858866353
  C   -3.22004772563885     -1.89150443318886     -0.03165628430113
  C   -2.00187159356864     -1.19312563263840     -0.00789963219801
  C   -0.78174706290460     -1.83783587818615      0.00651858768830
  C   0.54409984843243     -1.43096211301230      0.00953860286620
  C   1.58066399492511     -2.37342729956814      0.00212051126265
  C   2.78196277910555     -1.65454505114869     -0.03298679634662
  N   4.04351981807565     -2.13219051202558     -0.09260382710412
  N   2.56996955579092     -0.31983554206967     -0.04715507715018
  C   1.23840453790413     -0.11649386938710     -0.01800778051545
  H   0.52500504627101      3.75881806943011     -0.00399941779540
  H   -1.17293210133651      3.81086761371661     -0.03571881388248
  H   -2.45946560128715      2.23261257630833      0.09951580742552
  H   -5.29662836032264     -1.11365998812835     -0.04751642292236
  H   -3.33168048558929     -2.96406417431378     -0.04754882370261
  H   -0.88026305655465     -2.91944731809019      0.00865279551382
  H   1.45557781482331     -3.44430703745458      0.00503539154538
  H   4.78450863301214     -1.47086559946397      0.06238840604332
  H   4.22557351618095     -3.08269254719852      0.17020456928630
