29
Coordinates from ORCA-job ./opt_b97-3c_parallel
  N   1.93102338088686     -3.45252011517462      0.88838349760605
  C   1.38791386814290     -2.47867962029272      0.56066684397664
  C   0.70691383967439     -1.29017314122006      0.16619774452509
  C   1.54855336923619     -0.17537775134501      0.12139534298319
  C   2.93798546145670     -0.30511114065009      0.32925356488886
  C   3.56634590069211      0.89785812866426      0.01483181671021
  N   4.89026227754499      1.16247459574332      0.08859492341188
  C   2.57018560046227      1.84031350936814     -0.35706942757975
  C   1.31917608170220      1.24846352488153     -0.27120289487099
  C   0.18264839123150      2.04925537809376     -0.32951439814150
  C   -1.14704814817452      1.85836300950917     -0.05196110085716
  N   -1.90696336736812      2.99328662951131      0.07234186477721
  C   -3.13706436051579      2.58612258496009      0.39127791577175
  C   -3.25775526990986      1.19110094971932      0.43598318230748
  C   -1.99513569620075      0.66465028197045      0.15672587263292
  C   -1.79286435420141     -0.71266829576082     -0.11515977483747
  C   -3.01622201584978     -1.41446962541447     -0.29823615352192
  N   -3.99207492901453     -2.02639543550081     -0.45536001112488
  C   -0.66200561100809     -1.55441617115524     -0.20613732491200
  N   -0.89290963010654     -2.83989456450490     -0.62102528377983
  H   3.44460306487633     -1.21560346128808      0.59986967174615
  H   5.25825478357957      1.97077892714117     -0.37830384486180
  H   5.53616292194647      0.40575451124281      0.22223474542224
  H   2.74318206301550      2.88114416845194     -0.58320439619996
  H   0.39513125859504      3.09488228089114     -0.52138425684826
  H   -3.91915046305956      3.30627975564774      0.58660737866244
  H   -4.15733136328502      0.62854854168332      0.62121786852651
  H   -1.82781077164590     -3.20788215571552     -0.57728363329573
  H   -0.16417280760103     -3.52328405516791     -0.52018201001972
