30
Coordinates from ORCA-job ./opt_b97-3c_parallel
  N   -5.25455595814792     -1.20787918082807     -0.00263337358060
  C   -4.15363458070919     -0.82277041910279     -0.00615432050554
  C   -2.83897642228560     -0.36406835448317     -0.00922148092949
  C   -2.42369908818500      0.98063441364882      0.12678772466804
  N   -3.29636972723694      2.00063103690482      0.25480102075495
  C   -0.99686728807628      1.05708432969390      0.03145458391685
  C   -0.37786875238795      2.29427873090935     -0.00684476530570
  C   0.92231919965002      2.77879941018707     -0.14476741229296
  C   2.17181957750003      2.18674261020422     -0.19283019739181
  C   2.64045703291939      0.88086966956334     -0.09649537085376
  C   4.02998584025593      0.62097311298236     -0.10527494718394
  N   4.34902763446933     -0.66991531534226      0.03406800789529
  C   3.15822176351523     -1.31083196309756      0.13411906229031
  N   3.15052442253188     -2.65936479913678      0.28116784005865
  C   2.03355179837766     -0.42686821561367      0.03406000997370
  C   0.73385770373644     -0.90350833155463     -0.04012990391776
  C   -0.51935759420404     -0.32618809913142     -0.09486480388847
  C   -1.68150539352000     -1.15462095792785     -0.16907510219121
  N   -1.72185464475389     -2.50119398188500     -0.30425897848991
  H   -4.25755804769376      1.78108085827346      0.44961260190383
  H   -2.97882496755518      2.88669978057911      0.60033269772161
  H   -1.08512855598888      3.11759293904572      0.02728277280112
  H   0.96048523756224      3.85989226024807     -0.20599565203810
  H   2.97840663714499      2.90659900043430     -0.29803085842396
  H   4.80421956147635      1.37091866336320     -0.19943561551601
  H   4.05181007364879     -3.05777255174577      0.48566086087705
  H   2.38438579521352     -3.08473231825744      0.77091205497308
  H   0.69412714600893     -1.98945197223497     -0.04289689721043
  H   -2.62085994765455     -2.91573528882590     -0.48319116933682
  H   -0.95901163941159     -2.95804646437053     -0.76966755737797
