23
Coordinates from ORCA-job ./opt_b97-3c_parallel
  N   4.37720002983592     -0.80113381808267     -0.09054687844165
  C   3.08971545152731     -0.41781894788023     -0.04195449566610
  N   2.08503524014479     -1.33356197379005     -0.02844535359564
  C   0.96413724936001     -0.59079007354594     -0.01810119927070
  C   -0.25351496896129     -1.27427426925897     -0.00699518478627
  C   -1.57386083885649     -0.89481202414078     -0.00183291081712
  C   -2.60540824065119     -1.85242597550513      0.00124915731878
  C   -3.83827946546693     -1.20227540419195      0.00240647224828
  C   -3.62922982032835      0.17654868842284      0.00101936337670
  C   -2.24753177917324      0.44218874955875     -0.00117974075294
  C   -1.77173732364275      1.73740521541122      0.00282565170309
  C   -0.51835475521454      2.37042429692013      0.00471004903084
  N   0.74404442750217      2.00916060209118     -0.00762806125791
  C   1.37027793617385      0.84613602544376     -0.02262709537416
  N   2.72420459678875      0.87253284130706     -0.03762312179288
  H   4.59356021996849     -1.76194696554371      0.10049054880934
  H   5.08279711103309     -0.10996918343363      0.08556989226456
  H   -0.09894967278633     -2.34793598978064     -0.00682893269405
  H   -2.44531064321233     -2.91903539754756      0.00123341275897
  H   -4.80203660334214     -1.68865684627213      0.00415923801007
  H   -4.39492349423573      0.93645978249790      0.00238524698390
  H   -2.57305573125769      2.47035304447504      0.00785634319695
  H   -0.62042562160521      3.45419344544614      0.01699216934864
