26
Coordinates from ORCA-job ./opt_b97-3c_parallel
  N   -4.08730138020082      2.32660906076397     -0.71386313320996
  C   -3.41047807842126      1.40557345952208     -0.49307331229556
  C   -2.66586181881024      0.25627622262623     -0.22880692538746
  C   -3.22881177663381     -1.02912439976419     -0.01763349480865
  N   -4.52412786168683     -1.31668588460838     -0.13924436595801
  C   -2.20265893342997     -1.93220176704739      0.34168494274180
  C   -0.97897866657038     -1.28164291844989      0.32751275417418
  N   0.13378737305704     -1.97407866276298      0.45962270039003
  C   1.38398149434697     -1.67990575700165      0.21114667578769
  N   2.28685397331935     -2.69473004258118      0.22061936477310
  C   3.42101723503210     -2.14401775695492     -0.21524848126314
  N   3.40730025143633     -0.82592305414016     -0.49864418966921
  C   2.15109110250604     -0.43644133326444     -0.21432324925787
  C   1.89046120604227      0.93071432587782     -0.15532157106971
  C   3.00277653426980      1.77284613885274     -0.41731729159038
  N   3.83591335863177      2.56426048101164     -0.58983064552045
  C   0.69508723915983      1.63357602965763      0.21915378155658
  N   0.83864901072954      2.89638111247259      0.67612585390078
  N   -0.56985200010937      1.27546377183458      0.07381622160081
  C   -1.27509131910876      0.19110861198811      0.02152905308400
  H   -4.87703594806826     -2.23269994737317      0.06712755056762
  H   -5.18615757307716     -0.60620053164528     -0.40006534600024
  H   -2.31685998855224     -2.98755492181630      0.52528878072796
  H   4.32041321656466     -2.72884209631337     -0.34522720425895
  H   1.73736544029508      3.34604658729566      0.69528922801724
  H   0.01366977057816      3.46888442882068      0.71305763886777
