27
Coordinates from ORCA-job ./opt_b97-3c_parallel
  N   0.51858689307243      4.28656650176163      0.44702511749343
  C   0.17826831186287      3.18343234385075      0.30402037830525
  C   -0.24600857589269      1.84530607119853      0.11733576828466
  C   0.77095901933352      0.87814846944728      0.18892852240758
  C   2.09313098370279      1.22571511105441      0.43859902154851
  C   2.94097526317102      0.14204451716811      0.13481905435631
  N   4.27398545470121      0.12715916474063      0.22713748324742
  C   2.14864503382783     -0.94824920419329     -0.30195878814738
  C   2.66571824416460     -2.20566644189493     -0.61143947156761
  N   3.19392446931081     -3.21271865193057     -0.86114286989561
  C   0.77877900829216     -0.58360124812029     -0.22400476757476
  N   -0.11973492436038     -1.51432092270915     -0.39242995682305
  C   -1.41281399063060     -1.56634910926679     -0.12558832448456
  C   -2.09671178137617     -2.76820719708641     -0.02216394014376
  C   -3.36559644390896     -2.46210675751676      0.50866637686269
  N   -3.58961663750474     -1.15863607937454      0.69053324429919
  C   -2.45218049924581     -0.52293655943101      0.27710827972827
  N   -2.48126328017442      0.75898927336671      0.12793360370852
  C   -1.63517714954132      1.72104098031661     -0.20180209032231
  N   -2.24110797906622      2.78131193184415     -0.79000568755961
  H   2.43468123775725      2.20603034731383      0.72817589503305
  H   4.77784135487370      0.90342807331146      0.61309916921876
  H   4.79149930159129     -0.70571560192817      0.00695993455164
  H   -1.68218003750120     -3.73993701737549     -0.23075765478534
  H   -4.13428844629978     -3.17839126354744      0.76622801442978
  H   -1.73886716003375      3.63399592600681     -0.96291796347338
  H   -3.24289804112894      2.82853640509035     -0.72486784459686
