26
Coordinates from ORCA-job ./opt_b97-3c_parallel
  N   -4.26644654705333      0.60194634904241     -0.06361932884031
  C   -3.16278531664955     -0.18891836615957      0.01137546310239
  C   -3.19762352320019     -1.59519086426464      0.11689913375445
  C   -1.89359231343815     -2.04239765777434      0.14436629830226
  C   -0.98440803809436     -0.95334399678527      0.07722848616706
  C   0.37275050591233     -1.19495582489001     -0.02518329112850
  C   1.48379502725738     -0.37086153622641     -0.11121125469524
  C   2.82129403189259     -0.86262292513075     -0.12007424560690
  N   3.25339478809740     -2.13265029677511     -0.28092100559778
  N   3.75257639291379      0.12454395933744      0.02950558950004
  C   3.05267582327234      1.24806208815186      0.14810113018204
  C   1.64935928309048      1.06447747065133      0.05032071097538
  C   0.80566225821495      2.16174279372296      0.12393243508450
  N   -0.46861152572534      2.38548496626007     -0.15509103609077
  C   -1.51025089322930      1.59078957145110     -0.29499332392659
  C   -1.79852080282556      0.25438899608368     -0.02397254604175
  H   -5.15081155155818      0.17983228921504      0.15491435675460
  H   -4.19092194596183      1.56205467799228      0.21790373067784
  H   -4.09050879985296     -2.19891581299137      0.16731655722473
  H   -1.58616526826080     -3.07686971269178      0.19433222355763
  H   0.59852763575471     -2.25870156215177     -0.01572572487714
  H   4.20719944121152     -2.30916636854791     -0.01741912182530
  H   2.61368272306721     -2.89721681548335     -0.17095604890027
  H   3.55212121908082      2.19845755194733      0.28011257000159
  H   1.32441299192662      3.07798041359458      0.40488951447769
  H   -2.36717686964300      2.14508278772170     -0.68142682723152
