23
Coordinates from ORCA-job ./opt_b97-3c_parallel
  N   4.54988768084152      0.82525796672150     -0.06974364405586
  C   3.23994722975877      0.47799184316226     -0.02390166943057
  C   2.74592087277243     -0.84678132122620     -0.02046609286382
  C   1.35407352136057     -0.83608975556220     -0.01542273011264
  C   0.62802311517549     -2.01779948336255     -0.00870550667890
  C   -0.72021880273704     -2.36602790223910      0.00071892266511
  N   -1.87661379149925     -1.72563146987289      0.01019942519732
  C   -2.20791154045626     -0.45769432916639      0.01051709849834
  N   -3.54058070976182     -0.18615576401524      0.02307730533128
  C   -3.67865196763891      1.14961016914659      0.01928697956632
  C   -2.46701050685565      1.83522161838885      0.00405833891649
  C   -1.44968689009595      0.87366064489421     -0.00185695220395
  N   -0.18883030209611      1.26594652638038     -0.01425499116086
  C   0.95445360153817      0.61896287214362     -0.01957351448504
  C   2.14829978584539      1.35571672651058     -0.02784009741265
  H   5.24134287261515      0.13553433434487      0.16286724631540
  H   4.80491136870585      1.77222518982738      0.14465864621283
  H   3.35521913892237     -1.73867314007067     -0.02377044183603
  H   1.26391064911712     -2.89818248178912     -0.01146562926488
  H   -0.86375983207653     -3.44454070483718      0.00202440952738
  H   -4.66804268900858      1.58625925593102      0.02761442715665
  H   -2.30087015188466      2.90008730442005     -0.00202950525049
  H   2.18151173675780      2.43298195417034     -0.03535497223138
