22
Coordinates from ORCA-job ./opt_b97-3c_parallel
  C   3.58235951179246     -0.88581422949658      0.11394781217423
  C   3.21029941508850      0.44586318412481     -0.06101867891906
  C   1.80209498404149      0.55609476545438     -0.03341536755711
  C   1.20444895097930      1.80040357596378     -0.22884236482600
  N   0.01579827341252      2.30782355565311      0.02034591704836
  C   -1.17928108130077      1.81267546025475      0.24155435539407
  C   -1.76410345564569      0.56867305645763      0.01325148078259
  C   -3.16373226313191      0.40287652104895      0.02389723819456
  N   -3.54520728181676     -0.87762081509686     -0.13792684434115
  C   -2.40547411942203     -1.58609617657382     -0.21347502672772
  C   -1.24496464067278     -0.78591015286466     -0.13916394247552
  C   0.01623035793612     -1.34543666631283     -0.00855147380319
  C   1.28627667026894     -0.80831966267811      0.11957087666008
  C   2.42049995308301     -1.64907993935838      0.20097147633305
  H   4.59247220906616     -1.26236974394384      0.14385836477361
  H   3.88197618266329      1.28273034352103     -0.18037104312627
  H   1.89697791912485      2.55406552494093     -0.60168157119794
  H   -1.87327350223743      2.55992658771313      0.62464437631927
  H   -3.89545510843964      1.19206749803912      0.12611545292941
  H   -2.42439503313967     -2.66444741614128     -0.29327075714791
  H   0.00497004030987     -2.43215231476939     -0.00622591743571
  H   2.37073752064022     -2.72534103203613      0.27373816174849
