29
Coordinates from ORCA-job ./opt_b97-3c_parallel
  N   4.78393552413889      1.89805946489898      0.00759101712489
  C   3.98720347125914      1.04728514799994      0.00461663254580
  C   3.05349931554873      0.01469543555701      0.00129539057835
  C   1.63806651495390      0.12671651709328     -0.01039679122413
  C   1.03618081269805      1.36342050769386     -0.03422327715776
  C   -0.25559547014545      1.92167201908476     -0.03520400741010
  N   -0.24463539841843      3.28527848103952     -0.09757207068101
  C   -1.54691999225634      1.31609424232505      0.00722450221953
  C   -2.61510962801433      2.25678480839444      0.04950898549932
  N   -3.37996278765139      3.13081083320218      0.08863709945594
  C   -2.00696036268821     -0.01120419064238     -0.00247720874700
  N   -3.33776818912250     -0.18936544545186      0.01112118485112
  C   -3.50410389402106     -1.52968912017242     -0.00301957222668
  N   -4.71707371126364     -2.08413106298269      0.00564663614020
  N   -2.37798714850933     -2.27376598705861     -0.02209124535875
  C   -1.37787361537624     -1.36966684132703     -0.01983480762922
  C   -0.08162527243139     -1.85662227292411     -0.02155056906975
  C   1.17560542519366     -1.28488981329129     -0.00368207204857
  N   2.23312926750255     -2.12674583148172      0.00965830316039
  C   3.34703260043020     -1.36991753404877      0.01562796406532
  N   4.55995885217871     -1.92825996313685      0.03650869941983
  H   1.78823010935331      2.14590656712976     -0.06089578902030
  H   0.61855861841398      3.77953207738043      0.02364568734416
  H   -1.09169090620533      3.81448973091521      0.01115269283298
  H   -5.53250930059916     -1.50082253867617     -0.00422290696694
  H   -4.81151307627493     -3.08128186936524     -0.03320230042407
  H   -0.04628600867189     -2.93813153791694     -0.02467913855775
  H   4.63904807224527     -2.92847449447770      0.02909079461145
  H   5.39308497093326     -1.37009362186071      0.02260968797274
