32
Coordinates from ORCA-job ./opt_b97-3c_parallel
  N   4.38935769308853      2.45890321100617      0.70574561792049
  C   3.80249226101239      1.48093312235840      0.47549133145280
  C   3.21959409115302      0.24785516063387      0.18639151240413
  C   3.94654021306689     -0.92556112905095     -0.20350141469081
  N   5.27261072531077     -1.01064267569762     -0.29574614871648
  N   3.14435209217461     -1.95775692714089     -0.47469619034287
  C   1.86433916901688     -1.53930574993562     -0.25703149463718
  C   0.88309309121032     -2.49069464935422     -0.32591725444750
  C   -0.48324066194854     -2.57591105454192      0.01634058408596
  N   -0.91760240314212     -3.85978606264692      0.11839736886039
  C   -1.47076150838068     -1.56190030062862      0.20816580081366
  C   -2.71587381929048     -2.09146201002093      0.63726977252613
  N   -3.66231201319808     -2.61842757331475      1.06015701402249
  C   -1.46396345295898     -0.16779294670677     -0.00074621625564
  C   -2.65072900687879      0.56307106135819     -0.17020149210771
  C   -3.94630844322316      0.13258458418527     -0.47227065165157
  N   -5.05218442924211     -0.06861434714621     -0.77470744733949
  C   -2.36618911000513      1.96641195584653     -0.12095942317898
  N   -3.26710456689491      2.92756221858867     -0.28352180617235
  C   -0.99058990830705      2.13466714309416      0.09781806937876
  C   -0.37106946552727      3.38311827647888      0.18556405374487
  N   0.04079483723148      4.46916787997169      0.24790652388356
  C   -0.36122176307525      0.86108400439461      0.12499801279389
  N   0.93416277632357      0.83022897992893      0.26852980763042
  C   1.86234233194712     -0.09127207389919      0.11991306528531
  H   5.85830653272966     -0.21899000621773     -0.10074751401348
  H   5.69272213836777     -1.86504501273869     -0.61461779465162
  H   1.31011956853522     -3.44933629402113     -0.59649027291978
  H   -0.25235608430035     -4.60826411329257      0.15472393717692
  H   -1.86131729486717     -4.07315560663105      0.39061771539273
  H   -4.23293411107503      2.70528801671132     -0.45544771081311
  H   -2.99470171195223      3.89497177172917     -0.25580620033397
