24
Coordinates from ORCA-job ./opt_b97-3c_parallel
  N   4.59747418851583      1.28475334302259     -0.30575381173916
  C   3.39268941287709      0.71646039670443     -0.11163711013236
  C   3.05020930125137     -0.60791593378306     -0.40077503404534
  C   1.71826591467249     -0.82459360459118     -0.02807863310694
  N   1.22773703600616     -2.03059319441412      0.06577837332272
  C   0.01763018220510     -2.49682979186059      0.36819205085241
  N   -1.20422314193247     -2.06564454955688      0.18796614550679
  C   -1.72523263913709     -0.85915279193274      0.00403296670000
  C   -3.04160470066941     -0.66969020662435     -0.36607242022213
  C   -3.32832544355270      0.69667083731885     -0.13618964869814
  N   -4.50305434702002      1.31349709343642     -0.34219483393191
  N   -2.27866576998949      1.40262124209657      0.32760029197812
  C   -1.22913278052336      0.55199524197436      0.36965329677624
  N   -0.04539172116385      1.05419314710047      0.60172213774210
  C   1.16947132064555      0.56311075350831      0.41284363585428
  C   2.25777428131564      1.41009969567248      0.39854040731350
  H   4.80357664769708      2.17908320164256      0.09924885442291
  H   5.38255166215267      0.72313557793008     -0.57951152366551
  H   3.72019427745351     -1.38955469147410     -0.71989472675980
  H   0.05586842492441     -3.52483767099847      0.72367404026876
  H   -3.72902793820032     -1.44807069979750     -0.65437907402358
  H   -5.32887359745378      0.78977836840453     -0.56130146294518
  H   -4.61054934351486      2.25106873550853      0.00227525641131
  H   2.20544611404031      2.46328176711245      0.62298008152122
