30
Coordinates from ORCA-job ./opt_b97-3c_parallel
  N   4.88294942020996     -1.86732561060901     -1.22435470532786
  C   4.12768837168130     -1.06469078540111     -0.84765164712605
  C   3.28429171425897     -0.04982210636850     -0.39979345732902
  C   3.71563303789039      1.25758328772453     -0.07023413475249
  N   4.95080730086367      1.71861394042348     -0.26416427059705
  C   2.63665841567297      1.98864877812547      0.49124985342024
  C   1.49916856424415      1.20429083638326      0.49128863896753
  N   0.31636410583017      1.73403627332898      0.74233203102948
  C   -0.90429712258394      1.36788731244381      0.45909651168504
  N   -1.85221197324777      2.33798043946973      0.51915936099692
  C   -2.97102441312100      1.83132777163991      0.00111299685455
  N   -4.07690968206032      2.55680913387396     -0.14052768472592
  C   -2.84090451506259      0.45369366853417     -0.38498233558150
  C   -3.88761292204540     -0.24261199935404     -0.99148817118717
  N   -4.82734873396215     -0.67971445952990     -1.52231841933714
  C   -1.54521620612659      0.07092211650054     -0.03002782598597
  C   -1.13464535569568     -1.26234463070502      0.12006364380218
  C   -2.14700951218371     -2.25137103505956      0.08489721804054
  N   -2.91770430361729     -3.12139510027921      0.12952057435310
  C   0.15894541411439     -1.79796065893435      0.41842018495647
  N   0.22087419785372     -3.01845053286296      0.99655495211962
  N   1.35224888955158     -1.33033619261386      0.07568380855599
  C   1.93205436509790     -0.18108868707496      0.00816748685792
  H   5.22294760010676      2.63015188403587      0.05350137093654
  H   5.66002712407770      1.12966418521779     -0.66589870477153
  H   2.65196593419912      3.02963303940061      0.76827008333258
  H   -4.07435866076362      3.51944577148993      0.14509215690559
  H   -4.89709308273235      2.17295117080187     -0.57532101769910
  H   -0.61160404804560     -3.55949947774359      1.15376857377527
  H   1.09886474219320     -3.50422507835326      0.94494637532897
