29
Coordinates from ORCA-job ./opt_b97-3c_parallel
  N   -0.30982643343261     -4.13362031166652     -1.12962017743373
  C   -0.10751836061483     -3.04055958480588     -0.79701950998272
  C   0.11461058619435     -1.68550732422184     -0.40793777816053
  C   -1.06878960846177     -0.94982777822349     -0.24784408109728
  C   -2.33093802503353     -1.53836304344749     -0.18971721057490
  C   -3.28087286242476     -0.57309882123960      0.19753064529778
  N   -4.58339869473546     -0.78129755960392      0.41254796994157
  C   -2.62993396724455      0.68255137099524      0.32963061641427
  C   -3.28302594152929      1.89070110696981      0.56867405895947
  N   -3.88765717519041      2.86458798946191      0.77185988169335
  C   -1.26210164991221      0.51405450673558      0.01039669071274
  N   -0.50927192172066      1.55565679031510     -0.19805278633601
  C   0.74957667476030      1.86982350904899     -0.37892247594379
  N   0.94925971659392      3.03960633324857     -1.02880327197463
  C   1.91515413128953      1.20572954123830      0.15155140518496
  C   2.99052009362300      2.08258531793871      0.45818498678604
  N   3.78779927096934      2.90710203747814      0.64310501653668
  C   2.16356486288401     -0.14455877285464      0.34549390323370
  N   3.40879116915075     -0.46480095832108      0.78912264037324
  C   3.55338902019264     -1.78211027950890      0.60518144483612
  C   2.42286023487937     -2.38731926691122      0.05002380063711
  C   1.45207920206277     -1.38851755559649     -0.08887937468099
  H   -2.53834293868173     -2.58533150155327     -0.33490092867564
  H   -5.00683353369639     -1.66913056655799      0.21730119775763
  H   -5.18903374968749     -0.01917441621228      0.66173269172302
  H   0.14799467057468      3.63455204892058     -1.15142230748107
  H   1.85792090093799      3.46940832743206     -1.04022357267237
  H   4.47521337335447     -2.27177495448296      0.88432572322727
  H   2.28542691190361     -3.43651346117751     -0.14767768070117
