29
Coordinates from ORCA-job ./opt_b97-3c_parallel
  N   -5.13671790628882      0.86968154903223     -0.05535402485179
  C   -4.00429222271061      0.59467459456787     -0.03478147014375
  C   -2.64975786957605      0.26502284340987     -0.01019247390038
  C   -2.11626109424993     -1.03938722114955     -0.05023959748828
  N   -2.88931175851198     -2.15099616060015     -0.07012289110719
  C   -0.68861351089164     -0.97076126175481      0.01218149235534
  C   0.05136172263442     -2.12950962603834      0.09157918636755
  C   1.40368432431198     -2.47832633701891      0.16806248586420
  C   2.58936569081769     -1.77355871423266      0.12089273821194
  C   2.94831900598413     -0.42921202144535      0.01182774029096
  C   4.32037629806842     -0.07527902032724     -0.04528488073175
  C   4.45438124076587      1.30800605213052     -0.14111344463445
  C   3.17152257065830      1.85033860128502     -0.13810417952685
  C   2.20540881495331      0.81490644667636     -0.04671809903724
  C   0.85204592480770      1.14978104138701     -0.01099439693730
  C   -0.34193878956375      0.46752144276266      0.03815437328619
  C   -1.57610086934186      1.18186917433053      0.05461929549384
  N   -1.75723342161235      2.52316888977539      0.05649732657377
  H   -2.49446508393839     -3.00881924025495     -0.40901289647748
  H   -3.86468239123816     -2.03015148710482     -0.28293365327589
  H   -0.56904289086375     -3.01988194447795      0.13180328350345
  H   1.54995752115548     -3.54849548193337      0.25189305812483
  H   3.45863856269015     -2.42261265486670      0.17422074592049
  H   5.12852510998173     -0.79178667497927     -0.01651467907906
  H   5.37990546307161      1.85784513353546     -0.20203719783561
  H   2.92727413613972      2.90171318508828     -0.19534601763985
  H   0.72718130866125      2.22809951275994     -0.05741275861286
  H   -2.68447725525564      2.86517654491192      0.24160498365464
  H   -1.02016108635884      3.11206863563101      0.39762505413253
