29
Coordinates from ORCA-job ./opt_b97-3c_parallel
  N   -4.28634675838963      0.69689814602700     -0.32189179474003
  C   -3.17428480111150     -0.07533289686095     -0.08393790446592
  C   -3.22117169589174     -1.36388095488158      0.47292598673027
  C   -1.92049900672828     -1.79087221168129      0.66970876134234
  C   -0.99412408435785     -0.79314043075616      0.27009193276153
  C   0.37557355229489     -1.07772181567967      0.08819426174923
  N   0.72172959846918     -2.41999522038701      0.10363358003778
  C   1.46637547807090     -0.18899441067327     -0.10868714644956
  C   2.81330016930506     -0.61094242070684     -0.29799323238879
  N   3.27870367045531     -1.87077919070846     -0.61390589938844
  C   3.69288901765477      0.46646771328609     -0.02389382947055
  C   2.93717147996383      1.55784244071918      0.32084839211717
  C   1.55304350122885      1.23351725668822      0.21472068088282
  C   0.65750505015329      2.28725122761564      0.18846065282151
  N   -0.53168992731777      2.45550648952380     -0.36987532476521
  C   -1.50492372017706      1.62076736792065     -0.63035559601872
  C   -1.80977336889655      0.33422480285135     -0.18608366657503
  H   -4.16489554476572      1.50425066812875     -0.90912704911645
  H   -5.12397044257593      0.18442244001638     -0.53928020406377
  H   -4.11794153708968     -1.90265230824869      0.73811918019328
  H   -1.67782164206834     -2.74802436649653      1.10690952043256
  H   -0.02948288655138     -3.06517677654706      0.26122247420308
  H   1.57016748536154     -2.66092257092148      0.59284271999756
  H   2.65870516888166     -2.42678071129847     -1.18234469929413
  H   4.22673377874939     -1.88110967879766     -0.95320197749388
  H   4.76947847916599      0.41660820584918     -0.09038849941663
  H   3.30773119050204      2.54981190683944      0.52961366504907
  H   1.06684909579151      3.22084982375777      0.57127551904123
  H   -2.28208924212545      2.09031780882151     -1.23688964431218
