30
Coordinates from ORCA-job ./opt_b97-3c_parallel
  N   -3.72944377094883      2.96656350085389      0.38827938496498
  C   -3.30024360589280      1.89237276483504      0.26230393929410
  C   -2.91628421667429      0.56180478937340      0.09837851571780
  C   -3.82193007411094     -0.51660549362094     -0.17403167329513
  N   -5.14529640678682     -0.39740072072131     -0.27397026620734
  N   -3.19773480376988     -1.68588777068305     -0.32270466808333
  C   -1.86493111006708     -1.45677254472630     -0.14581837768341
  C   -1.04134754648182     -2.54777243186210     -0.11109407461436
  C   0.34285221993201     -2.72989342403023      0.13514904197470
  N   0.70450167694588     -4.01103628766908      0.41467011065840
  N   1.39105684561775     -1.92627708086439      0.05148178962430
  C   1.59503861955738     -0.64128808933111     -0.02744420636032
  C   2.90959089898880     -0.16066184722978     -0.20148203859722
  C   4.05995265143888     -0.93574977517282     -0.35443329620980
  N   5.05512752591255     -1.52568386995474     -0.48270499036937
  C   2.91432092962083      1.25513205436881     -0.09770549701630
  N   3.98721776324653      2.03206936643391     -0.19393493145784
  C   1.59107437950805      1.70404989912798      0.13155228898260
  C   1.25843536767723      3.05435152845000      0.25090838660244
  N   1.09157939635529      4.20235581250760      0.34269693183018
  C   0.71177063275037      0.59597482276318      0.13924453079635
  N   -0.57356352502296      0.79416174316780      0.22233480363353
  C   -1.62940074538534      0.01211891417751      0.09246257477607
  H   -5.69832907619535     -1.20350630160458     -0.50281732529241
  H   -5.59455746247043      0.49504035405558     -0.17727436579433
  H   -1.59136518821442     -3.47070910821626     -0.24886175885488
  H   0.02821050791518     -4.71096000005061      0.65455271554977
  H   1.67730010411949     -4.19428015382751      0.58543570348684
  H   4.89595707868410      1.63845002166197     -0.36512378866424
  H   3.90827368795671      3.02946092468584     -0.09365012239405
