33
Coordinates from ORCA-job ./opt_b97-3c_parallel
  N   -1.73971662915736     -3.17957016479054     -1.62260690742096
  C   -1.35193475704069     -2.22587805725576     -1.08579427930884
  C   -0.97206775494615     -0.97407831309475     -0.52493965288166
  C   -2.07568559672317     -0.17392803424275     -0.15485519520086
  C   -3.33529366716535     -0.68568124751180      0.05977057180486
  C   -4.09621337411009      0.26093290450753      0.82264881047701
  N   -5.35122909596512      0.03564935510623      1.23804499430195
  C   -3.33906262723068      1.41314350676609      1.02793525148919
  C   -2.11488993323081      1.25383929054402      0.35226681183724
  N   -1.37418150913716      2.27401042487218      0.03565608055380
  C   -0.25192047596170      2.43739176664754     -0.65350235159766
  N   -0.26282206574953      3.53184305359897     -1.45030792809168
  C   0.97318293972360      1.71962670333401     -0.51275543915777
  C   2.10596999740066      2.45680469702078     -0.93050257393690
  N   2.96664482161522      3.10790513229229     -1.36567517453278
  C   1.20582422045074      0.41482451595102     -0.03562353068392
  C   2.48167305073447     -0.00621728549945      0.38852431145905
  C   3.58455890595946      0.75187606114677      0.78899557189467
  N   4.54881983160579      1.26569371790807      1.19046101477373
  C   2.51128429216778     -1.42661852473537      0.42750512208241
  N   3.54290488101965     -2.16641066210172      0.82590678474958
  C   1.24718483412324     -1.91380939778534      0.02270766918318
  C   0.96598007596391     -3.27915809220095      0.12224328672323
  N   0.88771458826990     -4.43148462975054      0.26967611991837
  C   0.38515067216211     -0.80827157988635     -0.21243749242523
  H   -3.65357024662316     -1.69027965573131     -0.16683575010789
  H   -5.81627019489685      0.67230235518278      1.85769349135417
  H   -5.81977489841634     -0.82501848323102      1.02527035157970
  H   -3.68290661555098      2.34743855127888      1.43843500720440
  H   0.59265898496864      3.88612555115421     -1.84297693549409
  H   -1.02027732660370      4.17853626371570     -1.32056865881857
  H   3.47551389262100     -3.16918937783860      0.84967602664277
  H   4.39102388231686     -1.73326903477661      1.14701566392893
