30
Coordinates from ORCA-job ./opt_b97-3c_parallel
  N   2.64126674086596     -2.04510626898643      1.26314196945990
  C   1.74539258045743     -1.32301008008476      0.51775561715693
  N   0.60370434158262     -1.92566822954976      0.32870284984336
  C   -0.56432959297114     -1.62753896404188     -0.21881846916566
  N   -1.17597156045861     -2.73526838217534     -0.80821413204751
  C   -1.32627812794802     -0.46128886578294     -0.11461895037244
  C   -2.74819302606712     -0.41556263944429     -0.14440273897841
  N   -3.62375506274616     -1.43889666352978     -0.33995309632002
  N   -3.24136134755852      0.82189584131295      0.08792333732132
  C   -2.17625989811203      1.61956275413599      0.24206013205746
  N   -2.35374803471475      2.95574266750897      0.42242304394456
  C   -0.92711758275865      0.92531578241507      0.12625664484439
  C   0.26694747979217      1.59115317223138     -0.02267413013398
  C   1.58451941958944      1.17154236653935     -0.21572956563120
  C   2.59975065405694      2.10254760317213     -0.57591149650566
  C   3.81919906225762      1.44993649073917     -0.65203238499170
  C   3.61095844298922      0.10775597766770     -0.29029871651091
  C   2.24641274813369     -0.09704395394341     -0.02803379142505
  H   3.34589538303117     -1.53672590906366      1.76395166412650
  H   2.28097308852180     -2.87436809257747      1.70288342422704
  H   -0.53968628459551     -3.51117531950139     -0.90060396508522
  H   -1.67830392902764     -2.53531403840591     -1.65910761751541
  H   -3.27702950062778     -2.36522775535886     -0.14359038914539
  H   -4.55598817158946     -1.24382270335362     -0.01279802562761
  H   -3.30045731322371      3.22632625706443      0.62737100346729
  H   -1.65609935019997      3.45183090883905      0.94643070380011
  H   0.16953765124561      2.67357912279394     -0.05134288042756
  H   2.41694486824030      3.14943538671065     -0.77039409192055
  H   4.76341739518669      1.88601245272988     -0.93915079348853
  H   4.36655720224778     -0.66334907936221     -0.26961795155581
