24
Coordinates from ORCA-job ./opt_b97-3c_parallel
  N   0.92686779072122     -3.15280918653458     -0.74740098802878
  C   0.63219647639113     -1.99341352472337     -0.09989358959744
  N   1.71801905889819     -1.35654076143044      0.38284105129054
  C   2.05187912956985     -0.10360233526187      0.34752185658413
  C   3.31405805912446      0.33834171041955      0.83212368222748
  C   3.55103922022719      1.60139677472532      0.33097239220007
  C   2.43988376739305      2.05510021735020     -0.41545680957180
  C   1.43866222642168      1.08907546397803     -0.38346103844968
  C   0.11658932635518      1.37630367802535     -0.66914283075128
  C   -1.06219692116223      0.72349347182336     -0.33604405918137
  N   -2.22530977013618      1.40701006288162     -0.32203370349295
  C   -3.09703815927410      0.54032475053191      0.24783090631757
  N   -4.36319482946118      0.89916192454834      0.50882940160219
  N   -2.63293853824216     -0.68926926751848      0.56191429122859
  C   -1.34584041436096     -0.65323300892376      0.18044905838877
  N   -0.64450233885342     -1.76456948385726      0.10834636985563
  H   1.85086354168444     -3.52589624178592     -0.61656525570973
  H   0.17312254253713     -3.81055139804863     -0.84962721968157
  H   4.00300690916093     -0.29586556666584      1.36397736024738
  H   4.45756445473783      2.16919994345867      0.48245423463999
  H   2.32759997759781      3.04197238303119     -0.83604164943505
  H   -0.05802987709244      2.37479524679670     -1.05501419253551
  H   -4.71682266982806      1.74183292918546      0.09524906058155
  H   -5.01298491500905      0.18806807269409      0.78852149437121
