28
Coordinates from ORCA-job ./opt_b97-3c_parallel
  N   -2.63866263558314     -2.29002191286763      0.81166900513479
  C   -2.50695746747641     -0.98675906229738      0.35119860144895
  C   -3.60542443823635     -0.21014245873563     -0.07557054713262
  C   -3.12268857314325      0.99446652994323     -0.53320420962844
  C   -1.71335842018329      1.04680252699380     -0.34881934929019
  C   -1.10293041999100      2.28836267668059     -0.46948452761650
  N   -0.03413234645539      2.83329622345084      0.08574019393668
  C   1.06328742228545      2.29803389011181      0.56024144204105
  C   1.67428578183972      1.06092589980950      0.34846173085081
  C   3.07698901755691      0.96239436303427      0.44324175338315
  N   3.55022841317963     -0.20286603739669     -0.01394581823678
  C   2.46127897742136     -0.92431307961071     -0.36299768164291
  N   2.64903971399956     -2.22435383875799     -0.82396194576038
  C   1.23811054922158     -0.23777718902425     -0.14179884214506
  C   -0.02278985663924     -0.87978697235501      0.01897797805185
  N   0.00467368693448     -2.23485502361469      0.06359139725167
  C   -1.29750282393443     -0.26285197243054      0.14846508740115
  H   -2.03565338446592     -2.52065673882132      1.58767811164874
  H   -3.59290879905047     -2.54185029391688      1.01549942981582
  H   -4.63954007016813     -0.51633125468646     -0.02370405635227
  H   -3.71593889550613      1.82958850143603     -0.87272370978962
  H   -1.69966840140526      3.01559263326556     -1.01765112445050
  H   1.67051108871130      3.00088083836989      1.12917907432534
  H   3.74650880026727      1.74904454019916      0.76081017264501
  H   3.63703933934739     -2.41046984710017     -0.92389977631696
  H   2.16568522723949     -2.42143226386081     -1.68920253830896
  H   0.89076717035142     -2.71342527788451      0.01525268807101
  H   -0.83716767061714     -2.76329873093399     -0.09208479083482
