26
Coordinates from ORCA-job ./opt_b97-3c_parallel
  N   3.24394831902906      3.22068717423278     -0.81973923798650
  C   2.69155511817496      2.22623263707545     -0.57406701893220
  C   2.13005640170284      0.98818203127300     -0.26657421007895
  C   2.85584260036801     -0.15295459364510      0.17134721975474
  N   4.17458784375855     -0.24202610212739      0.31739155522779
  N   2.05155228886134     -1.19692675395751      0.44827908811081
  C   0.78655437522760     -0.81201328993993      0.20683922678688
  C   -0.19191615043267     -1.80536377690170      0.17460037345527
  C   0.27443871419100     -3.13018493940555      0.37207820373516
  N   0.55726013374581     -4.25029532630220      0.49704053204306
  C   -1.59095471021897     -1.71135708255831     -0.14295215074307
  N   -2.16717944701268     -2.79240987961367     -0.70752828261749
  N   -2.45023436275389     -0.75851023689106      0.16829695596148
  C   -2.46053487825576      0.52864429305565      0.28451825811947
  N   -3.60021163683172      1.14397629442670      0.68680477925217
  C   -3.40904878772271      2.45527435442453      0.46607402186747
  C   -2.16218821539366      2.78369885938685     -0.08202782448658
  C   -1.43885482741887      1.59729053133144     -0.15171405356656
  N   -0.14945463425776      1.57028730800339     -0.39715993770268
  C   0.76275324298495      0.64511627360756     -0.20299218455694
  H   4.77662062650842      0.53159176901062      0.10088933664319
  H   4.57558586659695     -1.09939245296237      0.65399508666961
  H   -1.64580665098278     -3.63569854121791     -0.87165216237677
  H   -3.17084164018300     -2.84171913726740     -0.69822843918450
  H   -4.19630937928622      3.15442692486604      0.71402402287536
  H   -1.77706084249968      3.76153042509872     -0.31542990587109
