26
Coordinates from ORCA-job ./opt_b97-3c_parallel
  N   -2.76094221802310      3.24506700282733     -0.02300617413006
  C   -2.47777868544709      2.11546702736865     -0.01504585912943
  C   -2.24951990431201      0.73940251049150     -0.00568541816995
  C   -3.27921070992127     -0.22607277999410      0.00054714631305
  N   -4.58926107186374      0.04938124077241      0.00851718032780
  C   -2.69498572842266     -1.51107109257835      0.00590352680989
  C   -1.31124038740403     -1.41833784665020      0.00280871422235
  N   -0.60618955552170     -2.54483370697938      0.00904439257282
  C   0.68234970065572     -2.80061233241691      0.00783999525593
  C   1.87693019145636     -2.06818652635624     -0.00290434332912
  C   2.21108747479572     -0.73160777565489     -0.01553169428289
  N   3.52701413444916     -0.40637025361287     -0.02175718974823
  C   3.59627260509582      0.93938929946004     -0.02905750559100
  N   4.79077857010169      1.55313295277049     -0.06315736484836
  C   2.32197471550360      1.55356675554571     -0.02889445497665
  C   1.39144348454744      0.52915938148954     -0.01838115448400
  N   0.09029321513172      0.81088907348043     -0.01386540239110
  C   -0.98547625821453      0.08303287431365     -0.00592164809307
  H   -5.27529504442657     -0.68041777140934     -0.02308068357748
  H   -4.91099787027234      1.00065763281693     -0.02326126478230
  H   -3.22496905022660     -2.44973064210134      0.01338395918039
  H   0.87093055370752     -3.87260462202628      0.01597099348460
  H   2.75668586568349     -2.70074713799890     -0.00281586576143
  H   4.86496513927494      2.53958628531358      0.09752383074792
  H   5.61414137590850      0.99145302608806      0.06318168055090
  H   2.08543942994224      2.60431951643487     -0.03777070656935
