25
Coordinates from ORCA-job ./opt_b97-3c_parallel
  N   4.74800440112040      1.96997675055769     -1.07430218337429
  C   3.91759830170917      1.23972488857424     -0.71208110024027
  C   2.98627375600280      0.29003757570946     -0.29288612025335
  C   3.26921209420716     -1.09055142837982     -0.08500819036262
  N   4.42589341164201     -1.68962569118644     -0.32744045638408
  N   2.22415856096597     -1.79339928659191      0.41269171754681
  C   1.19725904711058     -0.94542365333221      0.52637351620408
  N   0.00036538220992     -1.44089992150665      0.73641850898718
  C   -1.19687470788503     -0.94620389065231      0.52651538678533
  N   -2.22313133575925     -1.79491507973747      0.41260651507110
  C   -3.26881015936447     -1.09268651404343     -0.08458423816284
  N   -4.42505182574899     -1.69251965256301     -0.32720162997782
  C   -2.98697000353496      0.28823973280860     -0.29184916534349
  C   -3.91913691889805      1.23740951440825     -0.71039305487738
  N   -4.75023523352478      1.96720533310055     -1.07195912591918
  C   -1.69390108609642      0.48818681161048      0.20625209561092
  N   -1.19951849460464      1.65230223042898      0.51748046567173
  C   -0.00070984747363      2.04779546619113      0.88669217842335
  N   1.19810400394849      1.65305726974121      0.51665527968112
  C   1.69314197240837      0.48921009460626      0.20551230136271
  H   5.20482730601624     -1.18523463441684     -0.71287217372424
  H   4.52786527495013     -2.66587512889177     -0.11129613265456
  H   -4.52630313143307     -2.66897344620440     -0.11158030182624
  H   -5.20442203340092     -1.18847865278574     -0.71224626027402
  H   -0.00078996456215      2.95546616945358      1.48441325033157
