25
Coordinates from ORCA-job ./opt_b97-3c_parallel
  N   4.58157102033005      1.54003836895205      1.01121258753544
  C   3.65646428373270      0.92000695198362      0.67263060459442
  C   2.60641142946734      0.09168598391483      0.27891872202014
  C   2.71335213787989     -1.30450593422617      0.05282186179778
  N   3.79436134280316     -2.05547418247720      0.25880099145179
  N   1.57004038028372     -1.85292363437830     -0.41950788545908
  C   0.66151622586603     -0.86380595168201     -0.49010638086034
  C   -0.66854112108482     -1.20581236236551     -0.67433058367108
  C   -1.84252098664858     -0.51233026642839     -0.42665900399988
  N   -2.97267217878733     -1.21665669632053     -0.28389419025768
  C   -3.90267849551288     -0.35607729143476      0.22063868921431
  N   -5.13058047123188     -0.81505148551583      0.48372108216441
  C   -3.42231662992281      0.95586015812910      0.37364808687708
  C   -2.11430288735485      0.94790375631586     -0.08934805410959
  N   -1.44040533396794      2.05245766665525     -0.35303002553143
  C   -0.18390767374436      2.29454533706145     -0.64858937387722
  N   0.95535819393995      1.69562838467858     -0.35122635554282
  C   1.31080392234579      0.45521000997199     -0.14371345725653
  H   4.65083596018998     -1.65193782683538      0.59213743917198
  H   3.77337580711759     -3.02648001870175      0.00487038997264
  H   -0.82122554732576     -2.26590028329939     -0.83099164778890
  H   -5.32216957273176     -1.79077534617559      0.34241852734577
  H   -5.81526803381920     -0.25070987643929      0.94916190610912
  H   -3.97482659261130      1.83294276818464      0.66433344499405
  H   -0.03498861921153      3.26771891373183     -1.11102964849434
