34
Coordinates from ORCA-job ./opt_b97-3c_parallel
  N   -4.40314341602677     -0.68761303829754      0.08731140068309
  C   -3.33079295213270      0.14382651607825     -0.18742341948301
  C   -3.45510412843857      1.38134372816035     -0.85120171825652
  C   -2.20580056491079      1.96910660896848     -0.90038563487577
  C   -1.23579167338162      1.11230821361425     -0.31391473081947
  C   0.08094168936943      1.54709756031189     -0.03694325185396
  N   0.25499382990810      2.92321928317685      0.04732594120838
  C   1.23864302493159      0.77087977145968      0.16093532690915
  C   2.53061504820688      1.29864037159950      0.44412259786148
  N   2.87157441485106      2.57014205442097      0.83186955968131
  N   3.52778687405940      0.41885849603590      0.22570322865847
  C   2.94308960627068     -0.70781635278652     -0.21434579390752
  N   3.71995575418868     -1.79101555340799     -0.50123420472706
  C   1.51726293454749     -0.60281104161318     -0.25364180768284
  C   0.68674912464322     -1.72159647933169     -0.31210827409792
  N   1.17379817633625     -2.84885709140387     -0.98462580952351
  N   -0.41962488082995     -1.97320354471574      0.37497511542320
  C   -1.48129225466872     -1.28187889975351      0.68532617107303
  N   -2.34878133508408     -1.94698339483787      1.54418127969879
  C   -1.96008113587687     -0.06678384002508      0.12511614237176
  H   -5.14723899720994     -0.62600654479623     -0.58901588431785
  H   -4.14833795226247     -1.64238989457967      0.29493123694239
  H   -4.37357596286661      1.78678694364665     -1.24798905458474
  H   -2.00081106726039      2.91416804489416     -1.38106802066703
  H   1.06863524631328      3.30526140838594     -0.41139960903251
  H   -0.57892748053266      3.46460169640941     -0.09179750202886
  H   2.18792514063851      3.04596244982303      1.39946247040929
  H   3.81259970291181      2.62026486160414      1.18917992434139
  H   4.62302723305290     -1.76255696012502     -0.05518297340683
  H   3.24627130510924     -2.68248687883372     -0.46189136620294
  H   1.54859469636343     -2.64821932549744     -1.89871609270383
  H   0.49457689790718     -3.59344547973489     -1.00185196871506
  H   -2.85473427298679     -1.35622976068477      2.18369942121704
  H   -1.93448060704049     -2.75782084266475      1.97519351110825
