24
Coordinates from ORCA-job ./opt_b97-3c_parallel
  N   4.65503381028026     -1.17937274082416      0.06342196225397
  C   3.41130709637029     -0.67603804179670      0.02846124912189
  N   3.18537783545546      0.65675679003244      0.01509995315756
  C   1.84173698651762      0.76576703122612      0.01476139851192
  C   1.28689252567474      2.04176332944112      0.00195461144545
  C   0.00016910161321      2.55602540241959     -0.00462004651942
  C   -1.28664344929229      2.04195771635966     -0.00076678465155
  C   -1.84170836106375      0.76604635381283      0.01077868412116
  N   -3.18536388061546      0.65723979999924      0.00818401338455
  C   -3.41152578783660     -0.67552108138319      0.02095045066927
  N   -4.65539796040260     -1.17867382744158      0.05312912739532
  N   -2.32234614998124     -1.47196304455649      0.03058413133267
  C   -1.28169621944157     -0.61140259494810      0.02541858299795
  C   -0.00014764558925     -1.14146321139347      0.02979360761380
  C   1.28148582787102     -0.61159498865935      0.02825674654253
  N   2.32199328981593     -1.47231163420344      0.03575678949509
  H   5.42604892892878     -0.56311455819650     -0.11434599288676
  H   4.77781708274506     -2.16182159257663     -0.09692205103941
  H   2.06291080692354      2.79776218816441     -0.00439078338957
  H   0.00026136672928      3.64026895370179     -0.01439320669557
  H   -2.06253161704858      2.79807481975382     -0.00872973577427
  H   -4.77797204647184     -2.16109492637680     -0.10753861942858
  H   -5.42593193367831     -0.56228867726725     -0.12627202842234
  H   -0.00023954060370     -2.22426290998733      0.04009138846435
