30
Coordinates from ORCA-job ./opt_b97-3c_parallel
  N   3.10723190911237      2.15578356439792     -0.71890953774941
  C   2.66808210034010      0.88090274163556     -0.33957696352441
  C   3.51568615771424     -0.17683013172841     -0.01750354348757
  C   2.73078547774794     -1.25360237054020      0.39103490445603
  C   1.37164480162299     -0.90707560239383      0.30308868327513
  C   0.37258203890651     -1.90964966249267      0.41974895853560
  N   0.58635779433378     -2.90733660544148      1.31062200383403
  N   -0.67990784046220     -2.09907056693057     -0.36659197858986
  C   -1.60416429201416     -1.27390615819181     -0.77413731486622
  N   -2.40103672358978     -1.71378787891607     -1.77908121156440
  C   -1.95098021112226     -0.01455928840634     -0.18296798101659
  C   -3.26415017684112      0.34436606189375      0.13758492502807
  N   -3.32865926533946      1.53584518194628      0.77738781551631
  C   -2.06776195747792      1.98696266631961      0.82390505999854
  C   -1.13690103331798      1.07830926950856      0.26496760757710
  C   0.23203641437844      1.38857742939365      0.01669316769878
  N   0.51317721350082      2.71558683027829     -0.06531468878053
  C   1.30669541676191      0.48171895652724     -0.12935977007292
  H   4.10473168082285      2.17905855097597     -0.86650166824282
  H   2.63744991603273      2.50962273426517     -1.54148092063028
  H   4.59093496638214     -0.17223780783551     -0.11604647593705
  H   3.10691768115126     -2.24768723782163      0.57935537146726
  H   0.08020824158964     -3.76746899177078      1.19752824356711
  H   1.40771772134882     -2.90267337512749      1.88511435699012
  H   -2.38896214948851     -2.69032384930179     -2.01555272053957
  H   -3.19499252550178     -1.16376126026925     -2.04706358945681
  H   -4.15032402343026     -0.26141078369946      0.00538135875931
  H   -1.84810622123278      2.92567252775263      1.31553181066627
  H   -0.23978635330266      3.36547371771630      0.06018180942322
  H   1.45154429387424      3.03631235775636      0.12494149286553
