26
Coordinates from ORCA-job ./opt_b97-3c_parallel
  N   4.66149931793500      1.43979092474117      0.13235641426025
  C   3.39929126612251      0.97257396855114      0.05050307443006
  C   2.23839552793323      1.74679345292110     -0.22797196336699
  C   1.16001531139441      0.89088529386281     -0.15898940286564
  N   -0.07869997345433      1.37013454770086     -0.28359578977688
  C   -1.25451982974359      0.83677193094774     -0.16397972606173
  N   -2.32379340476035      1.67798578991882     -0.17744806379410
  C   -3.41009828423658      0.92937313725218      0.04285984667890
  N   -4.62634027112880      1.50149841678774      0.08292986554355
  C   -3.13570671878705     -0.45694700433851      0.17217048091292
  C   -1.77441667385707     -0.60991953325703      0.03487440844212
  N   -1.23452898424065     -1.82274584766529     -0.00652668855663
  C   -0.01675440779774     -2.29834824312888      0.01263301453208
  N   0.02318871763848     -3.67668519945981     -0.09185491964247
  C   1.27226592373306     -1.72161741847321      0.21457445248121
  C   1.77369289290455     -0.45809255257841      0.14606389988438
  N   3.13012351070899     -0.31284851373154      0.28299980255418
  H   4.89017411852501      2.32841385089370     -0.27179120972312
  H   5.39970253469460      0.76035317479342      0.19400071203926
  H   2.17338909829904      2.80715794715402     -0.40675566533324
  H   -5.41203287084114      0.99723588169627      0.44842737479357
  H   -4.66501066698193      2.50577343681521      0.10035606935829
  H   -3.84302759701962     -1.26084345676962      0.29632776249248
  H   0.85680130300770     -4.10168021994091     -0.45771867322938
  H   -0.84299590774619     -4.09153350257002     -0.39076832393704
  H   2.04890796929803     -2.44992661732253      0.41620700558436
