32
Coordinates from ORCA-job ./opt_b97-3c_parallel
  N   -3.03474670771985     -3.08729810663950     -1.26259736937174
  C   -2.35593892783148     -2.25347557740486     -0.81941226542283
  C   -1.52481581761841     -1.23523642456764     -0.28023884995549
  C   -2.13599436893891      0.02417461498561     -0.24687784614723
  C   -3.47381374374175      0.19924622105951     -0.59921678247908
  C   -3.90986008886055      1.46734857394124     -0.16576742058082
  N   -5.15385618110987      1.95544909711188     -0.32582909422700
  C   -2.82991967768163      2.15242921943148      0.42409394543514
  C   -1.68682703565202      1.35785059969955      0.34166402228933
  N   -0.51869429591507      1.91190814564092      0.57874034522844
  C   0.72142213020863      1.53803781064403      0.34594138985401
  C   1.72014005836775      2.52386451665826      0.30934647930702
  C   2.93346057364598      1.93609917750597     -0.03307959841146
  N   4.10805104415277      2.53508071722679     -0.26237214859328
  C   2.74320418298742      0.51299303923605     -0.13101738956316
  C   3.79830813629733     -0.32005228682231     -0.50775511736032
  N   4.74672645955846     -0.88910019577761     -0.87341820787750
  C   1.39632005988403      0.21108723157099      0.11777349130600
  C   0.95359797612534     -1.09563397736238      0.40980884977957
  C   1.97288538258322     -1.96359542261370      0.88228220035552
  N   2.73024767530375     -2.72029043302986      1.33631461395540
  C   -0.30344835734887     -1.74435861824132      0.27179126503965
  N   -0.34268547098872     -3.05612275850444      0.62938644372383
  H   -4.11497517886415     -0.55948640028899     -1.01655647779720
  H   -5.88570198640689      1.36782191954264     -0.68063018822887
  H   -5.43877785088458      2.78531186204182      0.15999144866953
  H   -2.81776462233343      3.17749198736611      0.75507502070500
  H   1.52131073817603      3.57295746625795      0.44731961570294
  H   4.91224711321936      1.99544922353315     -0.53180313178364
  H   4.20493435220382      3.53103226999526     -0.20921695300209
  H   -1.16763839258436     -3.59867946551124      0.44842420678263
  H   0.51076449556713     -3.57071989608339      0.76170113397047
