31
Coordinates from ORCA-job ./opt_b97-3c_parallel
  N   4.42828277823912     -0.28948439779227     -0.37314861660420
  C   3.26896163522259      0.44156916969583     -0.23454661426503
  C   3.25487122777919      1.84859731202682     -0.33173136621537
  C   1.96061306275257      2.26492041947963     -0.12700861079608
  C   1.09977401371160      1.14872612441446      0.06398154223856
  C   -0.26310947423591      1.41035270869354      0.15853966794907
  C   -1.41548144697523      0.65413369092684      0.11549790612101
  C   -2.71865546294162      1.23278677111080      0.10726863085302
  N   -3.04799470309168      2.54505765793969      0.23648234519857
  N   -3.70179811078231      0.33541221018807     -0.12370678828313
  C   -3.08287710029296     -0.84940746474881     -0.24926797848410
  N   -3.82701395405306     -1.97046843125592     -0.44972719047797
  C   -1.66194974363526     -0.76660414329619     -0.07993039070190
  C   -0.86693939559624     -1.88479205270316      0.03254340703402
  C   0.47300528932842     -2.13770491115018      0.29869540813080
  C   1.66375189285769     -1.40216844525686      0.31553907337113
  N   2.78866543762908     -2.19424654858347      0.58487437681912
  C   1.94537281149381     -0.03879000749156      0.03942134558897
  H   5.15220403317361      0.18867176536195     -0.88451917876782
  H   4.30126269537119     -1.24671914800829     -0.66790448896920
  H   4.11694141545199      2.46661159144128     -0.53107910726520
  H   1.61426276183492      3.28780589035174     -0.14647182411916
  H   -0.45209650839343      2.48034910195948      0.18642683923352
  H   -4.02535055082569      2.71509420712432      0.40210792203118
  H   -2.42648755550353      3.13494494291339      0.75922972449510
  H   -3.39469605531201     -2.73529341691646     -0.93522621121277
  H   -4.77851002172947     -1.79088313931823     -0.72251219324809
  H   -1.43342023342396     -2.81188454113810     -0.00548055947946
  H   0.64533536482237     -3.19278021846934      0.48923948797390
  H   2.56358060877943     -3.11470747352999      0.92349530546678
  H   3.48441106824460     -1.75190121216917      1.16644356778521
