23
Coordinates from ORCA-job ./opt_b97-3c_parallel
  N   4.32311288113372      1.77019931952182     -0.00382854817938
  C   3.38762866232052      1.07896918907851     -0.00188649433926
  C   2.34697624866224      0.14615425594276      0.00146757910443
  C   2.56169051435079     -1.26076957102810      0.00814649383557
  N   3.76334643906410     -1.84202175478463      0.01181639455096
  C   1.31117208416535     -1.89988482536220      0.01002134334530
  C   0.28460022436273     -0.95857063345731      0.00472744075689
  N   -0.95761431376382     -1.39616402357960      0.00563653313835
  C   -2.11735160251624     -0.78395631453551      0.00155435316859
  N   -3.23907790830009     -1.55379973534511      0.00412480214181
  C   -4.24316964515821     -0.67590057139545     -0.00122950079335
  N   -3.92041402428420      0.63656268829072     -0.00729012999719
  C   -2.57193071931284      0.64663174401730     -0.00586889171026
  C   -1.92306473931483      1.87240413491615     -0.01092511194249
  C   -0.59491200672313      2.27918871484274     -0.01131579801562
  N   0.58515965266723      1.67628864916441     -0.00730618051572
  C   0.96426426086609      0.42308674371783     -0.00109440795983
  H   3.86047894724170     -2.84010867654364      0.01678593610377
  H   4.60216733568245     -1.28806715750955      0.01021633329332
  H   1.13512710101195     -2.96305433349980      0.01480632302547
  H   -5.27554331397165     -0.99501156057083     -0.00078352081122
  H   -2.62458126951010      2.69814858813468     -0.01558077068799
  H   -0.48624625797424      3.36014769838338     -0.01615940011230
