29
Coordinates from ORCA-job ./opt_b97-3c_parallel
  N   3.41448354622925      2.82625320328702      0.10951036751747
  C   2.82449572904982      1.82517823557746      0.03121518526420
  C   2.31001587205442      0.52740881705152      0.02295946016838
  C   3.12370942436110     -0.58426054620053      0.44462352918049
  N   4.40158366390607     -0.48591124525668      0.80622468565897
  N   2.46734762678680     -1.74202762037567      0.44755482954863
  C   1.19320651219616     -1.46837754108122      0.06681505772335
  N   0.42218499131846     -2.47529751506848     -0.21397067921293
  C   -0.86064410564440     -2.71549856015896     -0.39365174993650
  N   -1.10372872517462     -3.88494174042133     -1.05132534441801
  C   -1.98593092692554     -2.03262071051885      0.11177340875197
  C   -2.23085253025740     -0.69119582550312      0.31253089184966
  C   -3.48414515005188     -0.20792607329337      0.70559162948941
  C   -3.47943018179428      1.16575458193504      0.44050530888695
  N   -4.47655618494994      2.05214844256878      0.59660329819219
  N   -2.29204685817981      1.59785908492699     -0.06527998666438
  C   -1.47622370914849      0.53849296560653     -0.11053492928209
  C   -0.12634365317744      0.77833552197166     -0.43183698766967
  C   0.10887961684444      2.08597903347077     -0.94714442682057
  N   0.32319018015823      3.10822008826545     -1.45242227235388
  C   1.02196320301921      0.01348220979438     -0.15445344668955
  H   4.87674095833819      0.39885618489233      0.78988125889153
  H   4.89136554788848     -1.30522008551685      1.11617186961877
  H   -2.03931799941336     -4.23081998221838     -1.15205365923856
  H   -0.34219986148427     -4.53318628426838     -1.14772565713718
  H   -2.84015514555498     -2.67487229836846      0.29822359446747
  H   -4.31905161633234     -0.80840158332188      1.02823504070429
  H   -4.25783144901957      3.02329249493232      0.45808632998288
  H   -5.27328953055391      1.83005426568002      1.16295695941642
