25
Coordinates from ORCA-job ./opt_b97-3c_parallel
  N   -4.26813290535905     -1.70253079647203     -0.49846234693829
  C   -3.38890205316517     -0.95558132190760     -0.34487364205903
  C   -2.38849212588089     -0.00199343653779     -0.15909463285740
  C   -2.59309860219041      1.39511099208822      0.01103326330904
  N   -3.76359338705773      2.03134034941478     -0.04340340257043
  N   -1.44842397991328      2.05808449664137      0.25054660303074
  C   -0.44397597510216      1.15245884094234      0.22123289821197
  C   0.84872711490978      1.62529957317100      0.30096623268847
  C   2.09137107433010      1.03104153496912      0.11495159357299
  N   3.18177323268168      1.81832808119656      0.09531969455587
  C   4.20108982846894      0.97507316018671     -0.20932616877659
  N   3.89965179805833     -0.30297746414661     -0.38913423259610
  C   2.54192232176510     -0.35818315998484     -0.17382101550625
  C   1.95273489198926     -1.58784326492244     -0.15163207899188
  C   0.62919887598017     -2.04470723775708      0.11426768473506
  N   0.54091914492466     -3.37080909913612      0.41561456593365
  N   -0.54363888510556     -1.45291743563527      0.04982956418729
  C   -1.00946372618398     -0.22747538722067      0.00747006659245
  H   -4.61899619862828      1.53665602240490     -0.21744716158657
  H   -3.79276044986248      3.02100857661183      0.12276219742176
  H   0.90758003801728      2.69594400875445      0.44950264414585
  H   5.21427889466117      1.33958572434432     -0.30134730783023
  H   2.66870405212645     -2.37985613898952     -0.33939316373579
  H   -0.37483704718966     -3.78364058857671      0.43001910178082
  H   1.33973980882563     -3.97483620923819      0.37327659198258
