26
Coordinates from ORCA-job ./opt_b97-3c_parallel
  N   4.54437652777133     -0.88993423213331      0.05821703292419
  C   3.23995486452553     -0.50786054964450      0.02959442546823
  C   2.73745822226909      0.80544233911320      0.14073866100173
  C   1.35739360718139      0.71917842810211      0.00796582700769
  N   0.62211710256732      1.83138872903014     -0.05212817544598
  C   -0.64643697348530      2.11770305568016     -0.03104718808576
  N   -0.91280960449235      3.48161783125486     -0.15060948553943
  C   -1.83482950843317      1.35240526530873      0.21324794814311
  C   -2.17001398150465      0.03489493759605      0.16379053330357
  C   -3.53727374936728     -0.36243417868080      0.35028910530353
  C   -3.64723615209401     -1.70892282856549      0.11224073850973
  C   -2.36768759332212     -2.23042660312772     -0.19901367261057
  C   -1.42098916323948     -1.21195727462744     -0.16462421789982
  C   -0.06089387432631     -1.48367305614921     -0.29567015324140
  C   1.08817346336370     -0.73731230101949     -0.17916985411462
  N   2.27474717055628     -1.41412677436280     -0.18531832055799
  H   4.70103867683474     -1.87810477805818      0.16346407930032
  H   5.19778774086363     -0.29823287085121      0.53852217693842
  H   3.29167441501496      1.72282035177660      0.25303396160589
  H   -1.77348669082451      3.73797525405167     -0.60431976102138
  H   -0.11479487578977      4.00405340725194     -0.47317867042186
  H   -2.67534158623638      1.99172244356307      0.46580950157780
  H   -4.33724407105504      0.32067544480068      0.58903254643935
  H   -4.55880732659864     -2.28573798741581      0.15625220431014
  H   -2.14053849474082     -3.26702153760897     -0.39471959561914
  H   0.16089857936189     -2.53279127018425     -0.45972154097577
