27
Coordinates from ORCA-job ./opt_b97-3c_parallel
  N   -3.94537094437257      1.84152221663265      0.13214953918549
  C   -3.06437614087313      1.08551995301784      0.04772594787167
  C   -2.18395049674140      0.00094986213676      0.01492580481073
  C   -2.67251884617462     -1.33182251190380      0.26353154317638
  N   -3.95510692816523     -1.64470294530976      0.45858236621823
  N   -1.69697553603823     -2.22969586205759      0.27491275925552
  C   -0.52497627935574     -1.55614278424645      0.05909669522900
  C   0.58530961580412     -2.34278578777452     -0.11344598452528
  C   1.96860576053151     -2.10863653864268     -0.29740380144444
  N   2.67099419210586     -3.14138447334696     -0.84475107616572
  N   2.73210341596723     -1.11022259636123      0.10410423932605
  C   2.53479403702785      0.16884195241342      0.32011939903541
  C   3.57615995120374      0.99628421935054      0.76876378962986
  C   3.15581877163399      2.30503348347681      0.57613304229688
  N   1.90928482002130      2.40405281838298      0.06649435927475
  C   1.43346344967078      1.14659076124424     -0.04521537527483
  C   0.07115696674641      0.99981911417223     -0.30152657558834
  C   -0.55754110096559      2.21130345424126     -0.72238604462335
  N   -1.08637224201038      3.14681132377341     -1.15800939492897
  C   -0.79306804417263     -0.10274742138833     -0.10110312786045
  H   -4.20264856034144     -2.58848277081616      0.69266275320471
  H   -4.65991378679467     -0.93029686744812      0.49361331456575
  H   0.32256775291077     -3.39353781556839     -0.07693797269002
  H   2.23006465078051     -4.02511956837746     -1.02028617361953
  H   3.66986119449674     -3.12678325943678     -0.73734004979088
  H   4.54608259621498      0.64677323409755      1.07893086711940
  H   3.71936389338996      3.20471415433864      0.77874538021178
