21
Coordinates from ORCA-job ./opt_b97-3c_parallel
  N   3.64008032943047      1.78287164141274     -0.94197386409901
  C   2.65064995386348      1.24197476623240     -0.66341410728480
  C   1.38943256737017      0.71697701168247     -0.28222341707300
  C   0.41375263182517      1.71658010406360      0.10491068292162
  N   0.88300668562012      2.85414797931275      0.64231692601288
  N   -0.87453765694695      1.69807932014456     -0.13744928467207
  C   -1.82983961729730      0.82572241241080     -0.21417095921954
  N   -3.05794230980087      1.19599796674600     -0.62638964248234
  C   -3.82128276397343      0.12576510802694     -0.35569292635804
  N   -3.24354892358013     -0.95111384171250      0.21445355882655
  C   -1.94068487223689     -0.63337479124129      0.27727966842962
  N   -1.06452068568360     -1.54708441183772      0.60383875528999
  C   0.23232186383898     -1.60127342482775      0.38928641035867
  N   0.85857818860671     -2.77594810303522      0.58082680589522
  C   2.09486172644784     -2.59922442719891      0.07773256436567
  N   2.39664162833448     -1.39474680340615     -0.42178531098559
  C   1.28350145314658     -0.65882795060876     -0.20402240425056
  H   0.25419983151179      3.63411777526555      0.72707722417542
  H   1.86913406558077      3.01724884736592      0.74721332076406
  H   -4.87891128634808      0.13000968154884     -0.57879180449866
  H   2.81482385749110     -3.40463641044473      0.06754854498383
