31
Coordinates from ORCA-job ./opt_b97-3c_parallel
  N   -3.02664285472090      2.63125755704962      0.64449598176964
  C   -2.82804133055221      1.29761949706445      0.38580364040539
  N   -3.87510058010369      0.45551549388879      0.31389604633134
  C   -3.34458355449195     -0.73895094807522     -0.02654746949868
  C   -1.94963416994636     -0.71468067434883     -0.14569338084406
  C   -1.16829256612063     -1.84815090414638     -0.51085400057046
  N   -1.76653045570671     -2.76122761709296     -1.32695760017657
  N   0.02672714982911     -2.20857834309245     -0.09909881566480
  C   1.10137791765872     -1.60201002740881      0.36109404838174
  N   1.95657181033221     -2.47614786180466      1.04125482336221
  C   1.59503262771290     -0.30683469181764      0.12670799033254
  C   2.97551489877284      0.03428263284349      0.10216048013215
  N   4.05117043062444     -0.76032829406031      0.34375318106182
  N   3.19796725114044      1.32896679996927     -0.23503389054309
  C   1.98832997489954      1.87193013119396     -0.40408057930425
  N   1.87042529614667      3.19789750706535     -0.68959344529231
  C   0.91417527959644      0.94439214895956     -0.19050377121454
  C   -0.39260036842172      1.35708789057458     -0.06515458986844
  C   -1.57979799705809      0.65596412497091      0.11733472605212
  H   -2.34018326601160      3.07433174289415      1.23051628406868
  H   -3.96994035064656      2.82854866183522      0.93812729302158
  H   -3.98594460325126     -1.60759472331317     -0.09282619928677
  H   -1.39321772184100     -3.69348601335443     -1.34674676312473
  H   -2.70853338214147     -2.61501505079364     -1.63564919187293
  H   2.38835790148731     -2.08261401461587      1.86307360005640
  H   1.51217676647395     -3.36243045452677      1.22216126313293
  H   3.90169876643784     -1.75403825966226      0.25934043714351
  H   4.91578187963147     -0.40675009214732     -0.03173889991555
  H   1.08307437306459      3.48129137686213     -1.24445197630785
  H   2.73596600718987      3.64257812790790     -0.94511611901085
  H   -0.52542297818388      2.43592614888223     -0.10416854295613
