27
Coordinates from ORCA-job ./opt_b97-3c_parallel
  N   -2.55765402376886     -3.09172278951781     -0.67347679795490
  C   -1.76574838184898     -2.27859932541267     -0.41958611203689
  C   -0.78473221939654     -1.30491409554988     -0.09598135476088
  C   -1.23388104846136      0.01497633475787     -0.13987095909648
  C   -2.57409527327103      0.32688070858502     -0.43116494025451
  C   -2.80802148795858      1.66926151895260     -0.13132879608822
  N   -3.97515504968804      2.33763965014258     -0.28473360022688
  C   -1.59396758428865      2.25102717053759      0.31917071712889
  C   -0.58577837690215      1.29785619334653      0.29231518571735
  C   0.73996211830469      1.69321909914755      0.46112416665760
  C   1.94909464070707      1.09251231169495      0.21213529337395
  N   3.05256481739708      1.88663181011049      0.12944224833990
  C   4.04119970514718      1.10399630276952     -0.34391950660482
  C   3.66123017396969     -0.22294302580189     -0.53689227625627
  C   2.31655023156051     -0.30858965003570     -0.15063816674645
  N   1.70372725602371     -1.46386594864309      0.02057280901967
  C   0.49221999965652     -1.88848510134819      0.26057172699547
  N   0.44365536954684     -3.13693339927566      0.82347260817476
  H   -3.32186173133789     -0.38166535648159     -0.74595981861381
  H   -4.10022761122176      3.21565492886259      0.18486291305664
  H   -4.81603937790233      1.81610487472194     -0.45444988636568
  H   -1.44779035383397      3.29389847560146      0.55463377839435
  H   0.85670431109486      2.74449457927597      0.70121977978342
  H   5.02048505988842      1.52654473045519     -0.52221400898228
  H   4.27715432411036     -1.05500802235208     -0.83452038726333
  H   1.29233601374743     -3.67100056647433      0.74724994638742
  H   -0.41357661167215     -3.66136658196967      0.80053990492278
