28
Coordinates from ORCA-job ./opt_b97-3c_parallel
  N   -3.51827044790131      2.66898718344251     -0.29103815533496
  C   -2.87924064307062      1.69847949896542     -0.21394025510212
  C   -2.30450899046402      0.43995843406656     -0.02790758796335
  C   -3.04667311004762     -0.61552306080773      0.63102370352836
  N   -4.30860524170698     -0.49410861198760      1.03279434807591
  N   -2.34155534940521     -1.72671245039909      0.80836901309783
  C   -1.11550840908168     -1.49016664607443      0.27393967681683
  N   -0.33012416178201     -2.49133357059531      0.04326293436657
  C   0.92157917257306     -2.58522538453847     -0.40295845204903
  N   1.12448442694836     -3.56157477401266     -1.31682661901723
  N   2.01185544674342     -1.99160833238796      0.05869545868165
  C   2.21308932106158     -0.72162372993165      0.33532348233746
  C   3.39462451063500     -0.22835055312592      0.87530542439705
  C   3.38883713690019      1.15100730083975      0.61686671405607
  N   4.34127866140810      2.04616433505581      0.88876058655120
  N   2.25327179664342      1.58405058754777     -0.01035620153754
  C   1.46096876293962      0.52063376260403     -0.13257952025518
  C   0.12400337341702      0.71568571490153     -0.52947723721601
  C   -0.12073984103027      1.98545976641493     -1.12281144498121
  N   -0.32180506821581      2.97926817023072     -1.68691385261287
  C   -1.00830003548195     -0.04699766062766     -0.18222233114979
  H   -4.74725933760147     -1.25457740111381      1.51976034762061
  H   -4.82173309664235      0.35546317428590      0.87725087757932
  H   2.07221031344890     -3.84669443269557     -1.48918288534435
  H   0.39237123642430     -4.23557741661470     -1.45556044535499
  H   4.20831411368546     -0.82738527661309      1.24629081805569
  H   4.17340954034251      3.00941385282350      0.65659991995647
  H   5.13227161966043      1.81708199743797      1.45989078782580
