28
Coordinates from ORCA-job ./opt_b97-3c_parallel
  N   -4.31697023619717      0.60139807449694     -0.33194337067956
  C   -3.16314199533084     -0.10424976642350     -0.17658288437686
  N   -3.20390386961396     -1.44771494144224     -0.17477266943246
  C   -1.93919213742684     -1.83759845168907      0.05943587964489
  C   -1.01997885576700     -0.78052648283424      0.18642761361858
  C   0.36703652314130     -1.02591407784718      0.34470045529161
  N   0.69772811117847     -2.31285291601970      0.72350060712859
  C   1.45919463311742     -0.17698676783821      0.06005609142638
  C   2.78256228985912     -0.64820024645960     -0.18260959091809
  N   3.23815858227766     -1.93879213600116     -0.27469669964794
  N   3.68393327680570      0.35354093499631     -0.34488788202080
  C   2.98839957707352      1.47785194124120     -0.20163937327185
  C   1.60351516740523      1.27335952450425      0.01372133695667
  C   0.80096312278300      2.38898027649346      0.21590670220662
  C   -0.55679561482725      2.61289655087874      0.36567800921034
  C   -1.65452822388379      1.77711747500533      0.22538050588969
  C   -1.83938275423756      0.41755363781463      0.04020508620947
  H   -5.09988362730732      0.03795867623258     -0.61862789312878
  H   -4.26723280261897      1.49538069162927     -0.78604258761771
  H   -1.71426224642051     -2.89416890181788      0.03502614650985
  H   1.60054968926558     -2.42402781579175      1.15582211438037
  H   -0.02178348141222     -2.81760821085797      1.20704711075458
  H   4.16009650126884     -1.98314439719763     -0.68106528812651
  H   2.59485589484227     -2.61367076133776     -0.65897470927077
  H   3.47297223807377      2.44328432402299     -0.25342226703266
  H   1.38332521274915      3.30575058565185      0.22999717486919
  H   -0.81559957945714      3.65337469750621      0.52013358228806
  H   -2.58923486734005      2.32910429518446      0.26446019313893
