22
Coordinates from ORCA-job ./opt_b97-3c_parallel
  N   -0.00027287551443      3.06924726321919      0.67740700125394
  C   -0.00123630948774      1.90091557801845     -0.00642846019682
  N   1.19813795550285      1.46374408761146     -0.38152954287027
  C   1.72230450686531      0.27172378404549     -0.39100516151808
  N   2.99543816529819      0.12007501500934     -0.84995222022657
  C   3.38474363644835     -1.10146673182842     -0.46255059441786
  C   2.40467578776646     -1.81570867460853      0.24187680058471
  C   1.26447905861453     -1.00944759748801      0.25971392296953
  C   0.00144277461515     -1.47928813549408      0.57947584060264
  C   -1.26328542246831     -1.01063808962093      0.26475722155338
  C   -2.40282186916096     -1.81793952037740      0.25144324017620
  C   -3.38636348789039     -1.10453064485504     -0.44895719592894
  N   -2.99974221098578      0.11744137853682     -0.83776440026580
  C   -1.72492027737707      0.27018675525761     -0.38395621615843
  N   -1.20177639595645      1.46268312576193     -0.37639741921619
  H   -0.86155701100654      3.58767319281092      0.70124003894707
  H   0.86067077085670      3.58839379615447      0.69757966192905
  H   4.37963227755561     -1.45077701980520     -0.70201179477714
  H   2.47677378707158     -2.82642190530174      0.61095118811201
  H   0.00276133296474     -2.48044333013250      1.00119627677655
  H   -2.47251843979814     -2.82875340549596      0.62071775761905
  H   -4.38188507071378     -1.45472677481794     -0.68448223154803
