23
Coordinates from ORCA-job ./opt_b97-3c_parallel
  C   -0.00016061507481     -2.41634117382156      0.00040202525093
  C   -1.27496722800187     -1.86875331148706      0.00070558877231
  C   -1.79746643363538     -0.58482927456186      0.00107610578862
  C   -3.19358944027632     -0.39705204113364      0.00129322122637
  C   -3.50088078831142      0.96654312705160      0.00159170577577
  C   -2.31173936259490      1.68212828313759      0.00156926743137
  C   -1.21125608401308      0.78833898139911      0.00125943575970
  N   0.00009346210581      1.30651598807857      0.00123131544083
  C   1.21137245639260      0.78817406868050      0.00104286134517
  C   2.31197792610286      1.68181273026333      0.00116827904794
  C   3.50102131541645      0.96606470212800      0.00094757334980
  C   3.19354326281705     -0.39748810789561      0.00067011795165
  C   1.79739498962976     -0.58507447478295      0.00072269815723
  C   1.27472064760433     -1.86892725605245      0.00042883740274
  H   -0.00023470872305     -3.49965930811800      0.00011768573851
  H   -2.05302618110730     -2.62681789775904      0.00063103368358
  H   -3.90988264314457     -1.20561917753279      0.00122478011058
  H   -4.49488039163686      1.38608787955425      0.00180466834742
  H   -2.19055764875119      2.75326268866906      0.00175946922320
  H   2.19094321279187      2.75296374870921      0.00140633831972
  H   4.49507836872892      1.38547327815725      0.00098283965825
  H   3.90972573602641     -1.20615326397938      0.00044138318786
  H   2.05267605645468     -2.62709804600414      0.00016915733046
