31
Coordinates from ORCA-job ./opt_b97-3c_parallel
  N   4.56751297417198      0.93004447466397      0.37907039622588
  C   3.58300914298233     -0.00535106700685      0.19069204898768
  C   3.81858066252888     -1.38477613356527      0.03150465542108
  C   2.59369337983785     -1.99304594539048     -0.17471387028428
  C   1.55006354978543     -1.03240475145991     -0.14615288861320
  C   0.22857227648064     -1.43968163465024     -0.24497450008079
  C   -1.00846447292137     -0.83041244090614     -0.14997279188601
  C   -2.19384504822361     -1.62648621712006     -0.08075939541018
  N   -2.30645535325435     -2.97941138746426     -0.20390837861462
  N   -3.31016163792787     -0.90419437254846      0.10934118554970
  C   -2.91351664627915      0.37969020948949      0.13995619852919
  N   -3.87550806600748      1.33803374592980      0.32408088588789
  C   -1.50295056507136      0.54774729764781     -0.03500246325542
  C   -0.88405007814035      1.79675167626153     -0.18338179627880
  N   -1.74417719475019      2.89575474736956     -0.30772845474729
  C   0.47753742157440      2.17877845699467     -0.17184547780241
  C   1.69537734679314      1.55739308102275     -0.00050822538826
  C   2.17979456402232      0.25602307388034      0.05803989723418
  H   5.45876058810761      0.56575282539772      0.66812225839167
  H   4.31295414573516      1.75993505611646      0.88583746300063
  H   4.78206850127375     -1.86838098995290      0.08053473422226
  H   2.43350364048827     -3.05307482077515     -0.31071384365100
  H   0.16410711226004     -2.51474395806606     -0.38937737176443
  H   -1.51298673112499     -3.53967052967969      0.04954308300523
  H   -3.18551354768414     -3.34396942290400      0.12257997808634
  H   -3.57800410839321      2.16797593847311      0.81382611319440
  H   -4.74040680161470      0.94582845963462      0.66230136350728
  H   -2.55810097028594      2.73366419843346     -0.88162058989813
  H   -1.27532492537798      3.74467209309958     -0.57508517823381
  H   0.59119317137670      3.25410905826906     -0.26687302357289
  H   2.49195541043829      2.29686934160541      0.01785851433871
