20
Coordinates from ORCA-job ./opt_b97-3c_parallel
  C   -3.38208087463936      0.88186559959534      0.24290012034858
  C   -3.06763756331513     -0.46433112357415      0.43224628636113
  C   -1.73238346235795     -0.62172465821851      0.04526243693716
  N   -1.19085554697177     -1.81149600470598     -0.16249003627487
  C   0.03637491846272     -2.21218188898376     -0.38504748088978
  N   1.21931559529344     -1.73011743108860     -0.01362507598643
  C   1.71215314238181     -0.54392084758225      0.15355827463559
  N   3.00339116368038     -0.44125652181918      0.62250988330418
  C   3.36346917603079      0.82154481798406      0.44278967197367
  C   2.34581337512472      1.62997465238291     -0.12075715962081
  C   1.23344382987141      0.82036416458639     -0.27170079617631
  C   -0.04600861804644      1.32528238185649     -0.49545372956032
  C   -1.29005626385459      0.76899339312768     -0.31090569364098
  N   -2.35337319332454      1.61147478510679     -0.22812487904020
  H   -4.33888968700152      1.35296655054163      0.41756176561868
  H   -3.72386362208101     -1.26409565523610      0.73180358800032
  H   0.10238364000198     -3.21444944953097     -0.79928498720504
  H   4.35645157525911      1.14975533128982      0.71781194421140
  H   2.39867742211709      2.68754206176961     -0.32654936928243
  H   -0.09317765033136      2.39118670969891     -0.68880571891360
