25
Coordinates from ORCA-job ./opt_b97-3c_parallel
  N   -2.79868444268763     -2.99341304849676      0.00001368681200
  C   -1.99003068634213     -2.15906417967735      0.00055764180994
  C   -0.86515137515952     -1.28476306954221      0.00085407648855
  C   0.38050602457598     -1.97361673973413      0.00100286307689
  N   0.31604231992002     -3.33314067348194      0.00219440927297
  C   1.70723409341181     -1.49011311812237      0.00041894893041
  C   2.35923104159716     -0.28481000657865     -0.00037157394221
  N   3.72995961551132     -0.32934128358000     -0.00111217529418
  C   4.09745768534226      0.95016826466109     -0.00173992834518
  N   3.11436775399257      1.87490675177870     -0.00143087632094
  C   1.97542794732189      1.14810850210645     -0.00057673398836
  C   0.76538028378532      1.81338523854390      0.00022351898761
  C   -0.55460267194952      1.39702450874778      0.00105548490532
  N   -1.50977627452080      2.35008556601132      0.00159423949873
  C   -2.67005550914553      1.66439460521260      0.00212219795657
  N   -3.85622516142689      2.27359618754908      0.00275524762882
  N   -2.56648807941700      0.31505385689274      0.00195197695198
  C   -1.24799516633419      0.07197582376102      0.00134923869647
  H   1.15548053647563     -3.87865610374826     -0.00115458938328
  H   -0.56136133796455     -3.82180235578060      0.00019743280442
  H   2.43986778399990     -2.28985988731340      0.00065042833956
  H   5.13839626219244      1.24041027124742     -0.00245610391384
  H   0.86969178274198      2.89067608034442      0.00006546229213
  H   -3.90500425581354      3.27482220711610      0.00314976960579
  H   -4.69813862480700      1.72919282418306      0.00335716132983
