25
Coordinates from ORCA-job ./opt_b97-3c_parallel
  N   1.83843772900577      2.48357000340437      0.90236684017777
  C   1.05265364158857      1.56769408054378      0.27426300577797
  N   -0.10332137717352      2.06912195657545     -0.12494916105499
  C   -1.28052990478181      1.60049522887896     -0.43739020484563
  C   -1.94413215697247      0.39859419329566     -0.18940431119226
  C   -3.34743405921909      0.32545675596230     -0.31875762212253
  C   -3.77918855132638     -0.95929950376145      0.01346021818051
  C   -2.65721518384914     -1.72798183601277      0.31154661751150
  C   -1.49066290247366     -0.93421379120396      0.20007167645653
  C   -0.22979090466755     -1.51277073036007      0.23702198844795
  C   1.06157819670006     -1.03844248869894      0.06514552475555
  C   2.15252309328423     -1.94929662414571     -0.02611619511835
  C   3.33303006182107     -1.24389507366478     -0.16334642007058
  C   3.03024307640547      0.12865534186278     -0.10296087456215
  C   1.64633693627847      0.29641697284332      0.02575356457865
  H   2.58166978915390      2.17342397935988      1.49895002009900
  H   1.44622250935179      3.39568048922912      1.05841969208996
  H   -1.91095768121981      2.35038521080260     -0.91455314653014
  H   -3.97740395252807      1.15467782968736     -0.60498675602125
  H   -4.80190773310467     -1.30252172718476      0.01351413834053
  H   -2.65106196752246     -2.78209007393375      0.54702368942452
  H   -0.26459736927324     -2.58903277962533      0.38378346093777
  H   2.04171325731533     -3.02305101975951     -0.01286859910735
  H   4.31814746195178     -1.66418597645554     -0.29319418858545
  H   3.74405198595555      0.93336176746107     -0.19407391016749
