25
Coordinates from ORCA-job ./opt_b97-3c_parallel
  N   2.76313292816894     -3.07873890947951     -0.24116329002651
  C   1.90952969695757     -2.29526242180180     -0.14485387344787
  C   0.82919970310606     -1.37852648624403     -0.03717344173408
  C   -0.42567443043816     -2.02217532666172      0.05799012941659
  N   -0.42195170774553     -3.38928441893768      0.11781717879828
  C   -1.73248715734674     -1.48388596575022      0.13306476286458
  C   -2.31470765360116     -0.25419834197240      0.06552248828737
  N   -3.68827675464782     -0.21977681550930      0.09403166111174
  C   -3.97742291302696      1.06781138557896     -0.04294984842799
  N   -2.94275235385886      1.93742268872741     -0.14260503183144
  C   -1.84548439985777      1.16813406819691     -0.07406850164561
  N   -0.66883381840337      1.76162588868967     -0.08745328717582
  C   0.56239025115556      1.34922425060970     -0.02679944768024
  N   1.51054468737177      2.31424479631529     -0.00946162396723
  C   2.70156152150809      1.70316774331372      0.02707514047745
  N   3.82787485085926      2.41845116785686      0.06864326210105
  C   2.60249067556268      0.28818261764827      0.02052182064997
  C   1.26212202950103     -0.02621919619534     -0.00137966327409
  H   0.42186102888810     -3.90700311483432     -0.05482566350099
  H   -1.28034395490092     -3.88196572267777     -0.04115707076625
  H   -2.49541600671469     -2.24711646592186      0.24150849246769
  H   -4.99997870251129      1.41732100328814     -0.07152675648468
  H   4.73160438429194      1.98563268118636      0.08182327238776
  H   3.76767091319815      3.42124666200783      0.06471738891514
  H   3.42827154768265     -0.40356575882898      0.03814159048097
