22
Coordinates from ORCA-job ./opt_b97-3c_parallel
  N   4.31686385041531      0.80879101027874     -0.06683022386375
  C   3.03339078352673      0.43630755195525     -0.03045666548272
  N   2.67934190362366     -0.86883602019201     -0.01389688230152
  C   1.33685894520765     -0.85759563105844     -0.00089026651474
  N   0.72875889543819     -2.03328071625684      0.02349082390098
  C   -0.52900147299574     -2.39947546474724      0.03156238681889
  C   -1.77992422154483     -1.75672022351057      0.01294853056079
  C   -2.21682283704637     -0.45437323391662     -0.00459951215559
  C   -3.58325134785741     -0.13838546123347     -0.01297055943791
  C   -3.74581510252319      1.24921474951322     -0.01489900676980
  C   -2.49886351927126      1.86878275839161     -0.00886301760039
  C   -1.48937304944408      0.88953424187585     -0.00439142381930
  N   -0.23603524102461      1.26343904684001     -0.00600709304881
  C   0.90886607428962      0.60654244597774     -0.01035636367770
  N   2.03420272506299      1.34410742173651     -0.02588985025892
  H   5.03355329392510      0.11391428018818      0.02850244501239
  H   4.55048253462519      1.78009418771839      0.02019933412331
  H   -0.63158493359594     -3.48294508026153      0.05547490861731
  H   -2.59268930068950     -2.47692087567159      0.01710067996189
  H   -4.37734762357665     -0.86893391554759     -0.01471039953977
  H   -4.69663121022863      1.76096057142818     -0.02045407841303
  H   -2.29212104931592      2.92567237199235     -0.01074960061166
