27
Coordinates from ORCA-job ./opt_b97-3c_parallel
  N   2.62543030908338      3.32433430505886     -0.00529135336953
  C   2.38540872538447      2.18507784253503     -0.01772880015790
  C   2.19541914914873      0.80387527225630     -0.02797065494304
  C   3.22537033190421     -0.16880781242286     -0.03132080205724
  N   4.54772251793865      0.06877734699097     -0.07482536887174
  N   2.73964351572631     -1.42051094637871     -0.02314248122096
  C   1.38451929709451     -1.33630490680722     -0.01651645137091
  C   0.68144701066766     -2.53196354944042     -0.00801264971262
  C   -0.66090187355019     -2.88116607248369     -0.00254151757753
  C   -1.86140326165050     -2.18902443640096     -0.00140535103994
  C   -2.22679367850308     -0.84874930323878     -0.00057167228336
  C   -3.56385730628213     -0.47343105102608      0.00191501325782
  C   -3.67062270559208      0.93910945559770      0.00494797666519
  N   -4.83410036363232      1.63031430051503      0.04588752965956
  C   -2.38240613775719      1.48421802115434      0.01024280229701
  C   -1.43631582372223      0.44961235272199      0.00287146483237
  N   -0.16336594991218      0.76612781868989     -0.00481374079285
  C   0.96978865328871      0.09410323268305     -0.01644106042121
  H   4.89245767000458      0.99498903300164      0.10102928616187
  H   5.16803020865087     -0.70299738587278      0.09223637352395
  H   1.35853060525406     -3.37785372973603     -0.00849948105265
  H   -0.80453592794308     -3.95567078532625      0.00039592350237
  H   -2.72402500448232     -2.84843472019708      0.00072274614511
  H   -4.39734854013399     -1.16047550071743      0.00546821343183
  H   -5.69106212797843      1.15806196514546     -0.17796282534330
  H   -4.82088645667704      2.61470484355140     -0.15013415440748
  H   -2.11692895972952      2.52853779334673      0.01557487754517
