29
Coordinates from ORCA-job ./opt_b97-3c_parallel
  N   3.15601627449521     -2.15482016783528     -0.13173315364378
  C   2.86859678747141     -0.81356627080585     -0.08259371806909
  C   3.83370860853366      0.20857110868165     -0.03567434813918
  C   3.16684161795720      1.41892789715979      0.04422662030039
  C   1.76602068978591      1.21313826201061      0.04433849078048
  C   0.91049711981581      2.30147989373871      0.09156232791718
  C   -0.45428649867317      2.53950212657917      0.08002412099891
  C   -1.62280152591729      1.77221298987010     -0.03634131709541
  N   -2.77153593413689      2.53609431919202     -0.11889833155266
  C   -1.81654193571370      0.36746584328279     -0.10914109340941
  C   -3.07872697490988     -0.20838478398755     -0.30406711360781
  N   -3.09900470966862     -1.55361026152636     -0.19040187779117
  C   -1.83441492718170     -1.90371482999552      0.07809093492277
  N   -1.51119402292169     -3.22863381069425      0.23912564111342
  C   -0.93572983344939     -0.78329419994231      0.09257369234135
  C   0.42798821826979     -1.01165673590366      0.07635903468340
  C   1.56325336068187     -0.23086266364530     -0.00656838953002
  H   2.48382345481099     -2.74080944596871     -0.59703004773751
  H   4.09799349999272     -2.37898965342135     -0.40340907478090
  H   4.90275175857120      0.06358265514778     -0.07019259791986
  H   3.63287883071618      2.39261880344514      0.07837096436267
  H   1.46672402888972      3.23231822112770      0.15985873566200
  H   -0.67130036170001      3.60049997086780      0.15432161888039
  H   -2.67458409636136      3.50969902143043      0.10643193168761
  H   -3.62144740551331      2.13236964633816      0.22864837699729
  H   -3.99901664839529      0.29872795476807     -0.55422683234924
  H   -2.33176940439295     -3.80988927261259      0.30472221358355
  H   -0.83836332735079     -3.43634930342519      0.95745317984505
  H   0.65332721249437     -2.07398820417598      0.11038251914954
