33
Coordinates from ORCA-job ./opt_b97-3c_parallel
  N   -4.32166257415843     -1.33207461701633     -0.54596229152881
  C   -3.41862839479696     -0.38947526377347     -0.08720737601891
  C   -3.76124306775694      0.77535277235543      0.61457955058867
  C   -2.59204527029936      1.48151467616159      0.86359479714863
  C   -1.46906714988593      0.78428824323225      0.35112063322372
  C   -0.20812600333360      1.40629035930625      0.16478832846707
  N   -0.21908044609416      2.79757231328477      0.25141684905060
  C   1.04402469676469      0.83561422537919     -0.13140172202953
  C   2.21569634416323      1.60389109498067     -0.43043172177963
  N   2.29012462239166      2.94938871902419     -0.72506185945370
  C   3.35503635240423      0.80452493035444     -0.31099511171416
  C   2.96490875853027     -0.47902896648497      0.06071718418702
  N   3.83989304329457     -1.51770171140827      0.25243593957452
  C   1.52811654722673     -0.52714478288987      0.12906741077009
  C   0.84562022037930     -1.74021016906812      0.11731522071742
  N   1.46936820478227     -2.84159417486224      0.72262070343832
  N   -0.22949452863316     -2.10865989757703     -0.58291217792891
  C   -1.38309592723032     -1.55134530644006     -0.80489128671091
  C   -2.00203536610922     -0.43496711193715     -0.23574646091293
  H   -3.99050551726999     -2.28119283812966     -0.56371067029631
  H   -5.22805751786836     -1.27604263936498     -0.11251429510427
  H   -4.75606178735220      1.05441223774331      0.92775390382234
  H   -2.56615722136868      2.41083224478326      1.41398322329928
  H   -1.11796042856318      3.20600080248369      0.42977025351886
  H   0.52540695563360      3.21726523653928      0.78654414483384
  H   1.45359438684304      3.33831459652770     -1.13249945088907
  H   3.12743881674859      3.21040349006078     -1.21982733206470
  H   4.37175437997021      1.13219357357094     -0.47061538101722
  H   3.41544719384867     -2.43517628298233      0.19936320930271
  H   4.70085993428745     -1.43888001467001     -0.26436773603260
  H   1.77305114340862     -2.66808581752947      1.66826414702113
  H   0.90192987042816     -3.67189135325460      0.64403273978575
  H   -2.00484247968551     -2.13521074509844     -1.48459817646734
