30
Coordinates from ORCA-job ./opt_b97-3c_parallel
  N   -4.51123467833162     -0.87832335867571      0.29938080216546
  C   -3.52926377925536      0.03989325212062      0.03813559727926
  C   -3.76180094765420      1.39574501658029     -0.25561775284623
  C   -2.52832013683127      2.00431890489512     -0.41659369194956
  C   -1.48121486014718      1.06414103817940     -0.25255795430384
  C   -0.15895805962357      1.48813264518023     -0.19689460716173
  C   1.04817511889130      0.84505130893288     -0.01124875443532
  C   2.27852671248227      1.56769697192898      0.07825995038246
  N   2.43934091602261      2.91918056362115      0.11052902846300
  N   3.36466761730518      0.77755028435939      0.08271124770395
  C   2.89945763735041     -0.48300993980384     -0.02552927843481
  N   3.79258213500408     -1.50601210220895     -0.05753131069698
  C   1.47086277947996     -0.55232678236545     -0.06824645511774
  C   0.74545320941690     -1.74364602460236     -0.14811157783040
  N   1.43647981017367     -2.87303136448349     -0.60514031849937
  N   -0.47246589608386     -2.06918073294469      0.27964523706716
  C   -1.61220636093331     -1.44715382536023      0.43193790207755
  C   -2.11648432334596     -0.20575944656028      0.04750337745796
  H   -5.44373270510463     -0.60751295960223      0.04028766128576
  H   -4.31318285189258     -1.83899269380457      0.08433645724675
  H   -4.73057497948326      1.86413829646210     -0.33791073158528
  H   -2.36741521698798      3.05428487806233     -0.61508785837020
  H   -0.06896797571338      2.56293145545508     -0.32970013946633
  H   1.70862702743568      3.46313856272948      0.53236167616893
  H   3.36890122624732      3.21613775671887      0.35470908020668
  H   4.70312636465023     -1.26941760621798      0.30111655778407
  H   3.43710240589258     -2.41796593156126      0.18666102030956
  H   1.97185851496647     -2.72938912063855     -1.44788229515102
  H   0.82633386488689     -3.67395004119175     -0.65823445061999
  H   -2.34473498741783     -2.08540224700550      0.92867058097076
