24
Coordinates from ORCA-job ./opt_b97-3c_parallel
  N   4.61660693690192     -0.80354197295899      0.08374722298176
  C   3.29875038786754     -0.45725655129151      0.02869031881813
  C   2.78743494461296      0.85108663946480      0.02364023177332
  C   1.38732485466348      0.80991553683972      0.01867354588144
  C   0.64038161873316      1.97864980589841      0.00861976837148
  C   -0.71104485477527      2.33017420788011     -0.00366186685226
  N   -1.87455530453454      1.70870970515709     -0.01284755492906
  C   -2.24694993705075      0.44919099350839     -0.00955731984413
  N   -3.59408818864445      0.22421581568963     -0.02259226067305
  C   -3.77226685858522     -1.10219150971840     -0.01390310970856
  C   -2.57311593283106     -1.81608445911488      0.00494154748843
  C   -1.53707158081929     -0.87359953249424      0.00805789151380
  C   -0.20975782676751     -1.27380191671742      0.02174599014186
  C   1.01256893542291     -0.62571707655879      0.02530168523388
  C   2.21143229252153     -1.34949179130069      0.03392890447520
  H   4.86302817044126     -1.73913900648490     -0.18639345866638
  H   5.29066442791589     -0.11062191513384     -0.18941111651389
  H   3.37571170645396      1.75632756301739      0.02552640067643
  H   1.26872994960273      2.86466586954200      0.01007785803150
  H   -0.84173568472749      3.41079757020882     -0.00810349070396
  H   -4.77091619229672     -1.51646368151506     -0.02131341184930
  H   -2.45022168347513     -2.88872781994581      0.01495953859647
  H   -0.10301136428893     -2.35545927722054      0.03097611657140
  H   2.28070076055884     -2.42685810325184      0.04542561298568
