36
Coordinates from ORCA-job ./opt_b97-3c_parallel
  N   5.75327905303373      0.45603775161022     -0.26859477335491
  C   4.60467322038022      0.27868030375885     -0.16209973880153
  C   3.23395997253941      0.07116347687461     -0.03608349119364
  C   2.61313240832094     -1.00731329402331      0.62427981174602
  N   3.30739246433725     -2.04532325428591      1.16787133877793
  C   1.20076944408958     -0.88762437587731      0.46013585935406
  C   0.40458316071746     -2.00874591991371      0.64678511962555
  N   -0.72073061771227     -2.39785200809152      0.09814673152582
  C   -1.72712552004823     -1.76147746908121     -0.47379822624552
  N   -2.50782232193751     -2.60607281288147     -1.26987661406546
  C   -2.23424807468841     -0.47616775473981     -0.22398148988579
  C   -3.63703487192139     -0.22646414526530     -0.11490288580112
  N   -4.66558995852536     -1.08527626513312     -0.41167250461902
  C   -3.82959382387418      1.05944818294547      0.41037276448182
  C   -2.58693932805628      1.65164044572105      0.58114198500296
  N   -2.41758800488103      2.96258745398137      1.03569516593090
  C   -1.54735784372088      0.75289541236620      0.17255341796778
  C   -0.23528889122508      1.17563651329923     -0.14111812825793
  N   -0.07342750490921      2.52189370353486     -0.41427376288678
  C   0.94333478723426      0.38995397750224     -0.21431474879814
  C   2.21521365503434      0.91383608288061     -0.55634937633289
  N   2.51797207213175      2.09392912800561     -1.18423295094375
  H   2.86323918258040     -2.57815480778985      1.89361848594856
  H   4.28815841749637     -1.88654409031138      1.32592666515336
  H   0.86098370299838     -2.80619726662585      1.23056569927488
  H   -2.82968303116143     -2.18872354378023     -2.12908012624705
  H   -2.06383874627876     -3.50119648164765     -1.40738378538535
  H   -4.39127667701667     -2.05403247509234     -0.50779926852840
  H   -5.50046621107182     -0.95005057529616      0.13486036917314
  H   -4.78313065666912      1.50171205750919      0.65898415371340
  H   -3.26778857751302      3.34493200302823      1.41982036909274
  H   -1.66861992194525      3.05845806175019      1.70603621676152
  H   0.77183162251018      2.96393431117961     -0.08832961956253
  H   -0.89606682070887      3.09614182984566     -0.32618418658995
  H   1.83031786574743      2.42834310394041     -1.83980246976236
  H   3.46536394661284      2.16278048380232     -1.52148250066820
