30
Coordinates from ORCA-job ./opt_b97-3c_parallel
  N   -4.96639658700520     -1.87767810228858     -0.33979192770192
  C   -4.15172362818263     -1.04993362101310     -0.23109319026954
  C   -3.20478604580412     -0.03714198517209     -0.10588596081182
  C   -3.52214345423401      1.34090552458517     -0.02330142488254
  N   -4.76871962622219      1.83999957516748     -0.04292561127168
  C   -2.32815212728812      2.06797221741679      0.10944152943535
  C   -1.23631060830311      1.19859963084585      0.10401160340606
  N   -0.01965636349434      1.71087327598173      0.16660192094452
  C   1.19003836507907      1.20804773866632      0.10316673967538
  C   2.28881475060937      2.07753027645952      0.08012899497943
  C   3.47082784525088      1.35020509221119     -0.07371622802606
  N   4.71649640950673      1.83398991568858     -0.17290345303284
  C   3.15499913601711     -0.04156714195506     -0.13375110781021
  C   4.11098536517751     -1.05183258526482     -0.23109810162112
  N   4.96609470987614     -1.83849519187930     -0.31508931923714
  C   1.76269504904565     -0.21188015543856     -0.00551248368041
  N   1.27915722276013     -1.42460597330079      0.05024746839043
  C   0.07544341614353     -1.96409521291796      0.13983902564653
  N   0.13723443563595     -3.31562079030938      0.35527356022297
  C   -1.23914538230524     -1.44726746121924      0.02768333420137
  C   -1.79133278612549     -0.19844778027204     -0.01269997109526
  H   -4.92124443823290      2.82896811590990     -0.09946726724863
  H   -5.54826137904827      1.24124828061528     -0.25036758175270
  H   -2.23421869078950      3.13865680585460      0.18216248259124
  H   2.19728756589612      3.14962473986568      0.13289337549034
  H   5.50128074161111      1.20757707851211     -0.21120876900808
  H   4.90490430483218      2.80694390910070     -0.02169129349515
  H   -0.67311786389135     -3.89423611329183      0.23259369185288
  H   1.03885439519795     -3.74307202156781      0.23637011222330
  H   -1.98677007431310     -2.23273148739063     -0.01474653981460
