28
Coordinates from ORCA-job ./opt_b97-3c_parallel
  N   4.63891985727616     -1.76871665609960      0.90948711419242
  C   3.83358963298217     -0.97218405696385      0.63791740753759
  C   2.92949616040558      0.03779913188206      0.31433215833852
  C   3.29870719304154      1.38265073145520      0.04323680976902
  N   4.53587368609606      1.86072565320882      0.17645926974958
  C   2.16468826557122      2.10946122762069     -0.37833721112995
  C   1.04769984587605      1.28911366616953     -0.34710370277347
  N   -0.15482170852148      1.79760368716331     -0.50729287384951
  C   -1.35750697095811      1.33791873417596     -0.26020695186140
  N   -2.38146977907858      2.21253524842031     -0.27978690105691
  C   -3.44807066751412      1.49802878893164      0.12559128055897
  N   -4.65226377511503      2.04772255633059      0.26427567635248
  N   -3.24891176671990      0.18161058262174      0.39489597329115
  C   -1.95403626609951     -0.01436426426367      0.13905379088652
  C   -1.47632431119863     -1.32919481082266      0.09521564779812
  C   -2.46207610898527     -2.32954211734281      0.28998444736807
  N   -3.19351678149744     -3.22445978223782      0.41444474348217
  C   -0.17427583253605     -1.83538721162444     -0.21425339222441
  N   -0.09734548360731     -3.10945102355875     -0.66323941636610
  N   1.01862984727182     -1.29257087325415     -0.02280856304137
  C   1.55535143702681     -0.11661808211171      0.02193790303536
  H   5.28593924914270      1.26348190189024      0.47925600872610
  H   4.76220437561174      2.80147544987924     -0.08738926363971
  H   2.12820661875904      3.16420215279573     -0.59402571879683
  H   -5.42281965831011      1.48707158475644      0.57779950282627
  H   -4.78747906310873      3.01771584745906      0.04892301984521
  H   0.80558088008329     -3.54892504256676     -0.63396727776070
  H   -0.91392648109389     -3.69315460381250     -0.71379208466090
