21
Coordinates from ORCA-job ./opt_b97-3c_parallel
  C   -3.46046157290650      0.94448965795045      0.00296390350805
  C   -3.21658728406683     -0.41946465111420      0.00388719634447
  C   -1.81548342820673     -0.58421419429855      0.00302245996329
  C   -1.22961618068425     -1.83686534009698      0.00387235148837
  C   0.07371149297233     -2.34942715303907      0.00336624455219
  N   1.29489551559763     -1.85391966676953      0.00151036431318
  C   1.78827440699488     -0.62844752444801     -0.00023557857170
  C   3.18696605712116     -0.45294748789117     -0.00210264053826
  C   3.42819167883058      0.91031495201841     -0.00340146154021
  N   2.29141964579108      1.64340675267116     -0.00250839935017
  C   1.25295600738096      0.77563835969058     -0.00065630656133
  C   -0.01261396997364      1.33102102552916      0.00011201511485
  C   -1.29236165125915      0.79925734159358      0.00154597312000
  N   -2.32270292588839      1.67596642476418      0.00160062653562
  H   -4.42086138705607      1.43845859838310      0.00323429990975
  H   -3.94330871358496     -1.21636835532040      0.00506478441266
  H   -1.96145241081596     -2.63914270919238      0.00527733615218
  H   0.08417235167100     -3.43676651874456      0.00465303284699
  H   3.89822018927049     -1.26179240032419     -0.00232210340509
  H   4.38703047742271      1.40779200174890     -0.00494186775024
  H   -0.00267776501033      2.41400341818952     -0.00072692234461
