23
Coordinates from ORCA-job ./opt_b97-3c_parallel
  N   0.05264685694865     -3.49409298192398      0.06551125522989
  C   0.01297796249766     -2.10830048266328      0.03832478646953
  C   1.28787086950103     -1.50655599120328      0.07423692453473
  C   1.80818731214221     -0.23692156452966      0.05157484964279
  N   3.18072709634022     -0.16902554255944      0.08705767226747
  C   3.50348168790582      1.12552807198467      0.03264605340431
  C   2.38625976471190      1.96366181386896     -0.04240488334239
  C   1.25712520180462      1.13867199822958     -0.02702925108859
  C   -0.02822232743505      1.65840220717347     -0.06313303496592
  C   -1.28896030577036      1.09732744000540     -0.02483895245014
  N   -2.36256195102001      1.93979430150429     -0.04234599832470
  C   -3.41969277355898      1.12426968927854      0.02216043278471
  N   -3.16567598336134     -0.19357323417531      0.07764950172931
  C   -1.80788807571068     -0.27844991483751      0.04927124072463
  C   -1.26481177088561     -1.55439094994206      0.05389474696299
  H   0.89446522744895     -3.93760500630648     -0.25506131702808
  H   -0.78479678531839     -3.98205596391701     -0.19717233169945
  H   2.09874700276780     -2.22538829755571      0.12998656635200
  H   4.54098584472829      1.42821391177344      0.04914186535582
  H   2.37569742928740      3.04081891118573     -0.09563025383346
  H   -0.07299068566744      2.74072872694093     -0.11881747263673
  H   -4.43119274553735      1.50358826962179      0.03295701889830
  H   -2.06160334951935     -2.29064613925307      0.07758228851300
