30
Coordinates from ORCA-job ./opt_b97-3c_parallel
  N   5.31954989536999      1.21260576258728      0.00080818390908
  C   4.36576244425567      0.54280484536692      0.00184160028327
  C   3.23689009648169     -0.27256857754665      0.00315150874585
  C   1.88390885205052      0.12866356085902      0.00077480059366
  C   1.54654500643719      1.46166371389646     -0.00365054848369
  C   0.38684040395014      2.25247635402373     -0.00825805437898
  N   0.64180367930714      3.58685821425133     -0.01331821068981
  C   -1.00041109967069      1.89088115907781     -0.00823864710673
  C   -1.88072153705540      3.01157027144563     -0.01380686803572
  N   -2.46952974620170      4.01289614488648     -0.01876770489066
  C   -1.68035986181086      0.67215961382461     -0.00313391467542
  N   -3.02681467832600      0.75332808454579     -0.00346841551011
  C   -3.51596824939881     -0.49588128402051      0.00156683786360
  N   -4.82440948260592     -0.72925649377963      0.00273421438898
  C   -2.48624669374193     -1.47815411526167      0.00525930592783
  C   -2.70135502779950     -2.85617655106588      0.01060284562394
  N   -2.98845859236307     -3.98363305256819      0.01511491588203
  C   -1.26236146304516     -0.78674798710446      0.00237420786852
  N   -0.14494119601775     -1.47408588086599      0.00433657312423
  C   1.12660929640632     -1.17776019345106      0.00364417406693
  N   1.99561049327218     -2.21067406245986      0.00666745913803
  C   3.23517908969707     -1.69496563448229      0.00635037339174
  N   4.30824302359554     -2.48315895582581      0.00882222600667
  H   2.43731091376081      2.08243012778894     -0.00441247692662
  H   -0.09684837233980      4.26765331842733     -0.01692122330927
  H   1.58585188063719      3.92242538894184     -0.01422636690822
  H   -5.46356017265547      0.04593492735649     -0.00025612188062
  H   -5.18544328817357     -1.66620283113629      0.00658715915682
  H   5.23796261457394     -2.10549381057551      0.00887414481990
  H   4.18199316891017     -3.47946341183586      0.01106677360456
