29
Coordinates from ORCA-job ./opt_b97-3c_parallel
  N   4.84090990686739      1.18683136749715      0.80590036942827
  C   3.76530870946207      0.83224383277564      0.54646573175247
  C   2.43330137103000      0.55111947191533      0.14723616737534
  C   1.77822809387617      1.63825580483857     -0.56143473465075
  N   2.56608965899955      2.38974427379826     -1.36424936858345
  N   0.55319446960621      2.04516655617758     -0.41549931525877
  C   -0.61208136261412      1.56547123727339     -0.02232773475244
  C   -1.63256112258757      2.42225429392654      0.37949926227107
  C   -2.83427986790887      1.70388279009860      0.42595185744330
  N   -4.04013267506735      2.16334145162398      0.76904466390297
  C   -2.58966571081785      0.35150050146970      0.01785576655274
  C   -3.62446529217287     -0.58335325521930      0.06644630736218
  N   -4.59071059509614     -1.22630369123426      0.16751019692950
  C   -1.20341341322260      0.19739980265436     -0.19496683787702
  C   -0.56280730524770     -1.01598862895438     -0.44727777909281
  C   -1.38648846021384     -2.06389467952926     -0.95167807657663
  N   -1.99392927282189     -2.92648656288934     -1.43491970964424
  C   0.74809275352167     -1.43671276318743     -0.11304204841080
  C   1.08196336076317     -2.78023133042371      0.03847415057966
  C   2.33049318107580     -2.82107544083324      0.68848206808897
  N   2.84547813222702     -1.61656288883571      0.91634838393424
  C   1.95636471721765     -0.71774545825643      0.38850839126751
  H   2.20621895059519      3.28049753875384     -1.66020602636413
  H   3.56372118150373      2.26969845451099     -1.35397528985801
  H   -1.51495698951698      3.48410002130509      0.51493703509823
  H   -4.15650478045135      3.08274163182758      1.15151584347648
  H   -4.83264642103069      1.54372179327396      0.78657816213476
  H   0.45117216939975     -3.62128934928865     -0.19287319372999
  H   2.86006911784054     -3.70976676680177      1.00143463479021
