25
Coordinates from ORCA-job ./opt_b97-3c_parallel
  N   -0.06400407395108     -3.48320765772815      0.02875318823019
  C   0.14859598782107     -2.34343100438271      0.02529767024866
  C   0.24872355597365     -0.91145786339015      0.02004469500212
  C   -1.00004830660028     -0.25793609196824      0.02796634288024
  C   -2.19642923995730     -0.96654587515595      0.04055241912467
  C   -3.28717114948020     -0.06477558458480      0.03439282017894
  N   -4.59163809285876     -0.42578254003390      0.08217760890385
  C   -2.77535323575309      1.23503338841409      0.02364987293030
  C   -1.36935460741478      1.18745347841552      0.01904294622973
  C   -0.65066024822058      2.36721719241904      0.00781291793372
  C   0.69390676494023      2.76213621518610     -0.00059964023666
  N   1.86176111365400      2.16542044735866     -0.00481644125964
  C   2.23090336597717      0.89192801215152     -0.00301593687870
  C   3.60176488327633      0.58634206615736     -0.01217477547608
  C   3.71836182392600     -0.79814002148275     -0.00909927721487
  N   2.52528814301352     -1.41781733536778      0.00187779720213
  C   1.56747103676036     -0.45507352924073      0.00629535502434
  H   -2.28287870149640     -2.04023304243203      0.05330881115937
  H   -5.29582760627286      0.25632662850528     -0.13251179351909
  H   -4.83903069561090     -1.37710811145099     -0.12139608977306
  H   -3.35458523050548      2.14531333776080      0.02280849897114
  H   -1.30195022523655      3.23585536272020      0.00650834161792
  H   0.79560302314888      3.84551562704367     -0.00514113416199
  H   4.38311646605997      1.32750450273568     -0.02030243350681
  H   4.62738081100885     -1.38204925234938     -0.01434776111085
