23
Coordinates from ORCA-job ./opt_b97-3c_parallel
  N   4.47756409965998     -1.22594446508146      0.48899143227493
  C   3.27675019598927     -0.71974625308454      0.18875799376318
  C   2.22622582273871     -1.41526079132846     -0.48211490472660
  C   1.14414782502547     -0.57006037865513     -0.49013773172344
  N   -0.08000356896800     -1.01460576531034     -0.76553307898642
  C   -1.25283267808455     -0.52009435194766     -0.49383723910984
  N   -2.31935026124928     -1.35225105259128     -0.48551901972837
  C   -3.32965178514395     -0.66620089020125      0.07627136038467
  N   -4.51849620916330     -1.25502957048718      0.24975470441435
  C   -3.01107760540700      0.68208691123071      0.40116474095364
  C   -1.71783319779170      0.87860020947743     -0.01601654306682
  N   -1.16497853024919      2.07231276683479     -0.19342466374564
  C   0.06928987029814      2.45299817234877     -0.35552153987516
  N   1.23861960277535      1.95680244682624      0.04615943520261
  C   1.70700005520651      0.75201680676079      0.09637015470190
  N   2.96358511897639      0.53186943406717      0.55167359689006
  H   5.15440601865834     -0.62601320707989      0.92713652178206
  H   4.78507057171323     -2.10040681746982      0.10798724958417
  H   2.21596877332829     -2.44694622728483     -0.79223643503303
  H   -5.24530955846073     -0.81754523752791      0.78326429076422
  H   -4.61024961689631     -2.22759856743560      0.01505919140237
  H   -3.68251519486964      1.44374624464341      0.76214003032915
  H   0.16726960891405      3.44973875279644     -0.78221479325242
