29
Coordinates from ORCA-job ./opt_b97-3c_parallel
  N   0.47864389580542     -4.45421209819981     -0.73648326430930
  C   0.49677540460368     -3.32392260879560     -0.46789154187799
  C   0.73035007142678     -1.94770533046237     -0.18655898983116
  C   2.10158098463067     -1.63051276483026     -0.05373649612531
  N   2.99378841031805     -2.63507459368929     -0.24595066726196
  C   2.71611998583567     -0.42065515624541      0.35737659904085
  C   2.39461665260806      0.90283971601161      0.37012893830211
  N   3.44476849487291      1.74976428761972      0.66971690914993
  C   3.02488075128484      2.97613063225660      0.38487636779569
  C   1.70153916085918      3.01554111635939     -0.09268779826826
  C   1.22685000735714      1.70676862315563     -0.07256249991089
  C   -0.12671572646201      1.37730587372106     -0.28566164295227
  C   -0.89372429931090      2.47047969486864     -0.78638198919602
  N   -1.44985868472345      3.36735203486064     -1.26908172479074
  C   -0.85337819215594      0.20896868666099     -0.02079858765438
  C   -2.26325929579569      0.18582642320160      0.11449867285975
  C   -3.20071904310687      1.20813692213381      0.27122620583031
  N   -4.08932908353837      1.93852974375849      0.45092505269674
  C   -2.62906859165117     -1.17781094830011      0.24516504180479
  N   -3.85404520787907     -1.65556594113713      0.45157077000786
  N   -1.56139105818143     -1.99326883346347      0.15799910045560
  C   -0.46634185839636     -1.22577724890834      0.03310640974531
  H   3.97730841581199     -2.44571644719836     -0.23162042128943
  H   2.69799952694582     -3.55721154154436     -0.51560537269196
  H   3.74905411532051     -0.55342707432248      0.65857219252326
  H   3.67798235583503      3.82560729864052      0.52744672207589
  H   1.13743359084997      3.89447911916961     -0.35327668466220
  H   -3.98754069427393     -2.64503448499062      0.55593507383046
  H   -4.64268802798884     -1.03953682643325      0.53605986870449
