31
Coordinates from ORCA-job ./opt_b97-3c_parallel
  N   -3.13382887180951     -2.08829351556894      0.69511257442289
  C   -2.66384430350366     -0.82356729401602      0.31084853420318
  C   -3.49333451367164      0.24651170057200     -0.02557545709600
  C   -2.69044567591072      1.30583671354700     -0.43996951035278
  C   -1.33705928051624      0.93501802658696     -0.33930557941519
  C   -0.31809276920164      1.91557850133659     -0.43403256533219
  N   -0.49351993647523      2.93019961879183     -1.31975853909805
  N   0.72617762517960      2.06586672356273      0.36764712642900
  C   1.61916011446793      1.21701541972494      0.79869569070971
  N   2.38423694550086      1.63926528509631      1.83921899932103
  C   1.97196973841446     -0.03922319136313      0.20566899919807
  C   3.30954165684623     -0.39358061305973     -0.03278760754557
  C   3.33755431645966     -1.62899393716083     -0.69553692192127
  C   2.03107820796897     -2.08102086529886     -0.81955703858072
  C   1.14263437466279     -1.11129221960958     -0.27787349441450
  C   -0.23520009011510     -1.37952489505734     -0.03585343931976
  N   -0.55864780673072     -2.69884771749706      0.03994634699429
  C   -1.29683506746689     -0.44996911004065      0.10551805456476
  H   -4.13115081033101     -2.08282739564636      0.84610697415411
  H   -2.67232698934093     -2.44727307534523      1.52008268620755
  H   -4.56919317714644      0.25922060233395      0.06775367020117
  H   -3.04918512224713      2.30521968065934     -0.63484432449171
  H   0.00453853141634      3.78752358508173     -1.15705466721524
  H   -1.33214192219235      2.96723861697994     -1.86835660934076
  H   2.39326296380398      2.61961955549101      2.06019421750776
  H   3.16997245908196      1.08103896953870      2.11482432215184
  H   4.16348708600087      0.24037372251235      0.15696713869319
  H   4.21918136051533     -2.12385732326886     -1.07305619976860
  H   1.73934248473198     -2.99015715007909     -1.32501873281818
  H   0.17814876790494     -3.36853393749254     -0.07541195237951
  H   -1.50359221159662     -2.99198590091125     -0.16027893536829
