25
Coordinates from ORCA-job ./opt_b97-3c_parallel
  N   0.09654763981798     -3.48142907867415      0.03505826446896
  C   -0.11322721746135     -2.34095374714518      0.02811686345902
  C   -0.22944532560646     -0.91129041529236      0.01895904629614
  C   1.00487476244505     -0.24428498581031      0.02745728951745
  C   2.21041764591704     -0.95283780096307      0.04242787901519
  C   3.29114529509440     -0.05567311790669      0.03595803820921
  N   4.60048255972132     -0.39602247378609      0.08492245317700
  C   2.77324375550484      1.25086672055540      0.02247842044745
  C   1.37584381070062      1.20842813065785      0.01619264528858
  C   0.67334039389157      2.40714020276011      0.00313504803244
  C   -0.65540292205166      2.80657057595820     -0.00669491021563
  C   -1.87009362016280      2.14889394790012     -0.01254812415101
  C   -2.25812570548021      0.81549638098328     -0.01068583581765
  N   -3.59642575162778      0.56072718579335     -0.02244475159538
  C   -3.68297385501058     -0.77480148734469     -0.01840978636685
  N   -2.52283171036973     -1.44641495158141     -0.00441469403114
  C   -1.56934596396174     -0.48076540753627      0.00107923429015
  H   2.29673885263284     -2.02606447670668      0.05617605197041
  H   4.86266964463201     -1.34657511424937     -0.10327144666945
  H   5.29512334188967      0.29381966782548     -0.13549883861234
  H   3.35593523441785      2.15932019472282      0.02166918569064
  H   1.34994436584434      3.25579758920574      0.00159067449253
  H   -0.76302854905247      3.88473854230445     -0.01251850389766
  H   -2.73401680516062      2.80256266559484     -0.02163196650093
  H   -4.63379748106417     -1.28674771646533     -0.02590313089718
