29
Coordinates from ORCA-job ./opt_b97-3c_parallel
  N   -0.05744196403939     -3.56674650751547     -0.80109058661379
  C   -0.12611098362164     -2.43297823631460     -0.56431645184684
  C   -0.07686486527227     -1.02894594769982     -0.29286962751341
  C   1.23239994972458     -0.52988745795997     -0.14390994415350
  C   2.33532730208275     -1.36484287095614     -0.10219224977723
  C   3.49812812226522     -0.60844415882894      0.20501699269346
  N   4.72527801237604     -1.14642179315788      0.37818724525604
  C   3.15105082863874      0.73598853920014      0.32722086403363
  C   1.77372197585627      0.87883684294784      0.09292957764845
  N   1.27504591306502      2.08396843438491     -0.00389078505897
  C   0.08411189959810      2.64553295899414     -0.12058245395830
  N   0.17384622868843      4.01638221054621     -0.35692755775293
  C   -1.21629278917484      2.17685778228048      0.10286099600797
  C   -1.81496231156638      0.93034214701424      0.14996518201931
  C   -3.19591904834392      0.79259842160997      0.34418012539379
  C   -3.49759299158774     -0.55974104630204      0.14873720824490
  N   -4.71081535419143     -1.15935845087875      0.17657775121474
  N   -2.40057358303162     -1.29637050844165     -0.14049853701448
  C   -1.34578877584643     -0.45709696596435     -0.12944869779395
  H   2.31394827710112     -2.43466015792240     -0.22723181148494
  H   5.52597949968212     -0.54434704191330      0.43451936174440
  H   4.90066581672118     -2.08156525680731      0.05849279913359
  H   3.81400119717694      1.56844264877122      0.49439445704250
  H   1.09613734221120      4.30553100932587     -0.63659206623291
  H   -0.56487941612257      4.42728153273959     -0.90164301771630
  H   -1.92495918865399      2.98599471775633      0.24732387498958
  H   -3.88713355698576      1.59659373519505      0.54043564377451
  H   -5.46099715573645     -0.71291346138764      0.67100448652858
  H   -4.70370201281528     -2.16477323181810      0.19567531421494
