24
Coordinates from ORCA-job ./opt_b97-3c_parallel
  N   4.43707379255009     -0.88528048921642     -0.22129782574150
  C   3.15531254574242     -0.48740462020617     -0.11907742761347
  C   2.63853542096395      0.78075898782440     -0.48483467740598
  C   1.30367448742889      0.76734548871402     -0.13811441117993
  N   0.56632382732337      1.86848130723117     -0.06598531914111
  C   -0.71826090095654      2.04870200162077      0.10545259255152
  N   -1.09105248400198      3.21212409890995      0.70856315452439
  N   -1.77634268114465      1.34635789714598     -0.37240111241448
  C   -2.01878938419105      0.08120171600929     -0.32969510381760
  C   -3.27393361669599     -0.44529700657808     -0.77043408797383
  C   -3.41733793440798     -1.70293200077832     -0.24165014094206
  C   -2.24279327822885     -2.09369826203752      0.46140496257671
  C   -1.29829961822434     -1.08808758724548      0.38828036595660
  N   -0.02602841703202     -1.32139604487212      0.68068284067946
  C   1.05547050630848     -0.65585395942751      0.38026647428637
  N   2.24120379731383     -1.31266861225356      0.41928939228855
  H   5.06853094328937     -0.39719689872767     -0.82847598851526
  H   4.63347855286143     -1.85211334745553     -0.02866114298001
  H   3.18962180321562      1.63774103633431     -0.83633848387058
  H   -0.36809573977395      3.89891761205391      0.83561830979416
  H   -2.01835472674881      3.54832893342564      0.51657961739824
  H   -4.01784587020682      0.14081617524214     -1.28375712913124
  H   -4.29876598616506     -2.31988627676862     -0.34110213284963
  H   -2.04694282011917     -3.06634276034444      0.88149363792037
