29
Coordinates from ORCA-job ./opt_b97-3c_parallel
  N   3.29123455616121     -2.46975373264720     -0.31364796986156
  C   2.91053551383389     -1.16267552534652     -0.21350024696604
  N   3.83418615672374     -0.18681389628738     -0.22315073432331
  C   3.14451483495624      0.95965804029708     -0.03841089628540
  C   1.76192892386803      0.77175870849895      0.05650330174212
  C   0.84704609448777      1.82928514726092      0.30293853975040
  N   1.36227084478002      2.93807208815977      0.92089485283521
  N   -0.39512911469664      1.98488527206373     -0.09837520646594
  C   -1.41229023446473      1.22479612643575     -0.43031928468395
  N   -2.39720651969775      1.91666147920750     -1.11947746368014
  C   -1.72685355118338     -0.10253151204937     -0.05664375998524
  C   -3.04546168808701     -0.61340776256371      0.07224842253381
  N   -4.23784083118365      0.02499979340177     -0.11434323796089
  N   -3.06502815286389     -1.92877374912901      0.42415267417405
  C   -1.78704615221672     -2.29365823723646      0.50241152288831
  C   -0.87726776924134     -1.24126036374385      0.24513568283113
  C   0.48517242557449     -1.48559801387439      0.16160851070142
  C   1.57474861593639     -0.66288860666309     -0.04892101933694
  H   4.25289615574793     -2.58741120752216     -0.58689381832756
  H   2.66036999797671     -3.09901930736188     -0.77722625317856
  H   3.66264555663401      1.90786845778670     -0.05046065298075
  H   0.71131340215271      3.67895662063374      1.11370221351046
  H   2.11496554571717      2.81477574649424      1.57128465624487
  H   -2.09251532840119      2.81985823198979     -1.44414492119522
  H   -2.91456991632487      1.38489673544579     -1.80092259821214
  H   -4.23215042411442      1.02737078240286     -0.01118625677733
  H   -5.01374311803495     -0.44625089180094      0.32219636727537
  H   -1.51327354493818     -3.31510017343162      0.73065434486164
  H   0.73213814599712     -2.53580368202061      0.29684424737143
