32
Coordinates from ORCA-job ./opt_b97-3c_parallel
  N   -4.07796592667810      2.98399773603612     -0.43272720766378
  C   -3.07895857006706      2.41515295443237     -0.25177026602909
  C   -1.86254595660856      1.73839373021019     -0.01054549847485
  C   -1.83258958396035      0.37365251165766     -0.32317672015124
  C   -2.94786050495917     -0.26470839138036     -0.86678094880333
  C   -2.83472121423998     -1.64080605293927     -0.65335418749538
  N   -3.70670141432972     -2.58954631939259     -0.99742763181506
  C   -1.59513547395932     -1.90997676210229      0.01806759829008
  C   -1.20319182481858     -3.23707631131852      0.21081627447213
  N   -1.06410983177724     -4.39036438199040      0.29292423727408
  C   -0.89261896157771     -0.69804252437595      0.16194101528971
  C   0.45728326397347     -0.64679273330468      0.54170144326755
  C   0.96914344217248     -1.77236914969525      1.24228584522843
  N   1.40078589657094     -2.60136623285990      1.93164705226243
  C   1.43945343494033      0.29050734518761      0.14783928313353
  C   2.77531969150277      0.00261008714230     -0.12472125057074
  C   3.48303781150572     -1.19954911203806     -0.15531567477593
  N   4.18549640843211     -2.12277495166774     -0.25232889350687
  C   3.34052412795406      1.23231774297902     -0.63570000611719
  N   4.57290759650249      1.34669476566681     -1.11890790356882
  N   2.48929011439963      2.25739219308282     -0.58904300602926
  C   1.33189925292460      1.76371347629073     -0.09089115538623
  N   0.41994903480140      2.58913627873946      0.32872204611559
  C   -0.85617671725054      2.55257705749897      0.61768614067211
  N   -1.27491180915153      3.49858639067459      1.48463941355843
  H   -3.82092010573011      0.23550757677169     -1.25040288496094
  H   -4.51713323315890     -2.37627528817246     -1.54821506155098
  H   -3.50586508967511     -3.55739910930990     -0.80894271080569
  H   5.20171259043337      0.56312753018726     -1.12708334356421
  H   4.88019724982378      2.22883339924160     -1.48761638597094
  H   -2.25442431915115      3.64248743509443      1.65412369293145
  H   -0.64216147634907      4.24901469275000      1.70150203784715
