22
Coordinates from ORCA-job ./opt_b97-3c_parallel
  N   -1.01092278665094      3.08297014942693     -0.59653328279458
  C   -0.65205641679599      1.97601558200389      0.08186434909511
  N   -1.69226073801569      1.30178143745739      0.61754036632843
  C   -1.98034878059574      0.05291114957987      0.50914316930477
  N   -3.16720006248466     -0.41803228548950      0.99415258519673
  C   -3.35941115645033     -1.58146034997939      0.37252100596444
  C   -2.31841683226056     -1.98957064765402     -0.49058104056699
  C   -1.31049281136022     -1.05035867390929     -0.36557968455587
  N   -0.06764003678037     -1.26398354429210     -0.75755620883231
  C   1.04366831892382     -0.66529810474426     -0.39887573617979
  N   2.21210533793374     -1.31493470312462     -0.48670270557485
  C   3.09311051809104     -0.49223421795416      0.13170861766267
  N   4.36423241426037     -0.84880282023267      0.29099589947680
  N   2.64640631553065      0.70968912776552      0.57926286106685
  C   1.35815673316008      0.71037264007724      0.24156815919882
  N   0.63847670328522      1.80190538357528      0.28442258822893
  H   -1.96071476651181      3.40236933645826     -0.52622701298249
  H   -0.29363743807794      3.74462933690935     -0.83559869156801
  H   -4.26366317651262     -2.14397626025705      0.56817847310346
  H   -2.23646922411036     -2.92617358030524     -1.01523712083358
  H   4.67945965029208     -1.73634533539059     -0.05414688604405
  H   4.99608775703010     -0.24122264712084      0.77868252420547
