33
Coordinates from ORCA-job ./opt_b97-3c_parallel
  N   1.49524102437632      2.72998314886770      1.73977962458992
  C   0.97583047208949      1.93416983781630      0.76750459196904
  N   -0.18796888552599      2.30346706736550      0.29984400758989
  C   -1.11324331360181      1.66483453616221     -0.39866905623732
  N   -1.86881483405448      2.51662320006415     -1.20588242090111
  C   -1.57048810199988      0.34687253478155     -0.26129964572455
  C   -2.95734433305746      0.01756071831713     -0.29429023149535
  N   -4.00771172692788      0.78601820278361     -0.70135677785558
  N   -3.20915612916825     -1.20711578116332      0.21258228510017
  C   -2.01817025218127     -1.72433086481373      0.54676046655954
  N   -1.97610275188289     -3.01485969853462      1.02657748117509
  C   -0.92285444370373     -0.85452463348930      0.27205233573588
  C   0.41019490758998     -1.28210605895646      0.13936423815343
  N   0.67582781634170     -2.61423504360311      0.31445875298124
  C   1.53808330827583     -0.45994082865205     -0.14796856159903
  C   2.79899822625607     -0.92764343404552     -0.61523168626376
  N   3.10710356202158     -2.20958174533601     -1.09415896527965
  N   3.76861443008903     -0.00949782331978     -0.51311700497092
  C   3.18570858321215      1.07236434642854      0.05613146449058
  C   1.82124075691488      0.88623201987680      0.28230970105347
  H   1.09567061828665      3.64248925840716      1.87291380894404
  H   2.43470087283135      2.56902148477768      2.05071838254710
  H   -1.45011344673266      3.42968136872034     -1.28685184258721
  H   -2.12587823449016      2.12364894410046     -2.09750198078690
  H   -3.83557674556783      1.78091583302767     -0.71917665098661
  H   -4.88581020893798      0.50871794818227     -0.29256761565730
  H   -2.89558146389895     -3.34535818915074      1.27728714117652
  H   -1.29345463059542     -3.17687195883350      1.75136471684460
  H   -0.04249906500990     -3.27872191301218      0.07395570421366
  H   1.62461128021248     -2.91071384184266      0.13561058360176
  H   4.07777236264392     -2.22645284804374     -1.37609313767331
  H   2.52821885378438     -2.48387708361365     -1.87688119746888
  H   3.74773368551034      1.98613638933105      0.18930212926136
