29
Coordinates from ORCA-job ./opt_b97-3c_parallel
  N   -2.78285811637809      2.54760331596970      0.06256506529493
  C   -1.64289118667150      1.76165029809041      0.01893056816546
  C   -0.46533740290030      2.53683662621485     -0.09158034064677
  C   0.89038181412138      2.30204024778160     -0.07561232340598
  C   1.72254628280381      1.19097215306150     -0.01699896384177
  C   3.12067184738645      1.32622636260035     -0.00020061336832
  N   3.77743609009621      0.15435926918112      0.06151425904065
  C   2.81796537592093     -0.79345999913282      0.07412140088822
  N   3.17376452408337     -2.11283889780884      0.10716867241266
  C   1.49773378429179     -0.24439548823409      0.00313413643471
  C   0.36845860110608     -1.02691983243438     -0.10369932171324
  C   -0.99855508700203     -0.80201119462993     -0.10568518775252
  C   -1.87193440792401     -1.94383479216251     -0.10539429406056
  N   -1.48604730818069     -3.25336570067413     -0.29684429560764
  C   -3.16754370973834     -1.53274939042953      0.21743612610103
  C   -3.15081526225114     -0.15178577479849      0.35318798971940
  C   -1.85793320356875      0.36793059715522      0.12019995728352
  H   -3.62158470395175      2.16161763228270     -0.32878296199865
  H   -2.65787486646111      3.51920048855383     -0.15634146814438
  H   -0.68619998417390      3.59521499632381     -0.18484354801440
  H   1.46095760651166      3.22523921362608     -0.13365581171676
  H   3.66492354800257      2.26075267907799     -0.02027529529702
  H   4.14407856449403     -2.25206811213792      0.33815561164271
  H   2.55669211898404     -2.73995150106480      0.59328242725085
  H   0.60729203957653     -2.08556484990128     -0.15145599961274
  H   -2.25253149281756     -3.89577741018696     -0.40674442601436
  H   -0.78399463899558     -3.40376065652493     -1.00201063410794
  H   -4.02623822482106     -2.17550605908111      0.33741039601103
  H   -4.01899794974302      0.42486447868263      0.63039808765793
