28
Coordinates from ORCA-job ./opt_b97-3c_parallel
  N   3.69361514450124     -2.97242513478571     -0.35763942295124
  C   3.29506376779343     -1.87929531422411     -0.28248598184732
  C   2.86426474730008     -0.55880882298459     -0.17658475771152
  C   3.68783084640370      0.50884471534744      0.28510219756212
  N   4.98766377388110      0.38067499710934      0.59147415708752
  C   2.92491967827147      1.68513497781580      0.31596377930086
  C   1.62918545656519      1.41041021983891     -0.12012102728714
  N   0.80018705363389      2.39574886081749     -0.43115983510821
  C   -0.48015138353606      2.45931040184840     -0.70238415142057
  N   -1.53279740079258      1.71853277265805     -0.37801903249656
  C   -1.72575913478796      0.45196903674426     -0.14607921920731
  C   -2.99781763050911     -0.02956515699622      0.26437668672839
  C   -4.12467682023485      0.72575222629463      0.58961034082540
  N   -5.11203181470412      1.27179126343384      0.87629723694692
  C   -3.00662717306275     -1.43822821253764      0.14202551265758
  N   -4.05261102406394     -2.22635002111434      0.42332654212842
  C   -1.73217027976753     -1.86628374524904     -0.30018363609545
  C   -0.89132428050506     -0.76968406548774     -0.42651386368942
  C   0.48678774413055     -0.92181042096167     -0.56137038872355
  C   1.54870947684734     -0.06842946965930     -0.36833298463809
  H   5.48433928954149      1.12780604822437      1.03855905944703
  H   5.42149828633228     -0.52547613852553      0.58900221981845
  H   3.28816292538274      2.67591105692967      0.53270734406485
  H   -0.76900435289038      3.39732799120751     -1.17069403314135
  H   -4.93713479700195     -1.81829216050172      0.67167342453333
  H   -4.04439576686676     -3.19938759862497      0.18154465121362
  H   -1.43286501993541     -2.89566716118037     -0.42307068926951
  H   0.78571314957393     -1.95842636843637     -0.68457875682691
