23
Coordinates from ORCA-job ./opt_b97-3c_parallel
  N   -3.81263688889493     -1.68846975768208     -0.01328483182700
  C   -2.78603244548479     -1.14604558078153     -0.01036311657534
  C   -1.42780314887203     -0.70165967291012     -0.00642202568051
  C   -0.48053784558612     -1.77583362660170     -0.00145025847144
  N   -0.99629870803503     -3.03317289861464      0.00520114029915
  C   0.92215784423156     -1.73397440893169     -0.00225859355113
  C   1.91625560967676     -0.78342558659900     -0.00426095546187
  N   3.19463782636097     -1.25109086826523     -0.00543200319210
  C   3.95256809985655     -0.14436403207517     -0.00511118174205
  N   3.31805351132964      1.03560357464342     -0.00321001554935
  C   2.00164984393713      0.71334332986857     -0.00293047379843
  N   1.12923143083984      1.69223906237816     -0.00133198599384
  C   -0.18320935503725      1.70738012128739     -0.00346985562504
  C   -0.85453430049635      2.94011156109719     -0.00386826584072
  C   -2.21491343740604      2.67118054673292     -0.00914708113001
  N   -2.49198769927765      1.35203660695084     -0.01149455770960
  C   -1.31550730718444      0.68640011245401     -0.00790219040506
  H   -1.98679484322848     -3.20017070739474     -0.00303506418807
  H   -0.38815193328006     -3.82901872581293     -0.00199653827166
  H   1.37120728465122     -2.72161350344519     -0.00093820083637
  H   5.03139568046772     -0.20486951405287     -0.00625631353367
  H   -0.35674626227743      3.89432640725696     -0.00182376320890
  H   -3.02484550809198      3.38600054259749     -0.01133153010695
