29
Coordinates from ORCA-job ./opt_b97-3c_parallel
  N   -3.87517038986170     -2.92003901822692      0.76579062560470
  C   -3.41106187548277     -1.88221690168302      0.50632099876665
  C   -2.89533462602516     -0.63083840949581      0.18460196826116
  C   -1.56541405789520     -0.17908627137224      0.29880084206848
  C   -0.51568567374827     -1.00408365465306      0.65467520078619
  C   0.85451665474153     -0.92524936772862      0.43914013654440
  C   1.67548856300153     -2.04675098420981      0.46963896962167
  C   2.92570294075274     -1.72846818324330     -0.10548395660763
  N   3.94709411887894     -2.57193074787713     -0.29471236775630
  C   2.93523237235586     -0.36015832741789     -0.47867363636124
  C   4.06076851044443      0.31015248929807     -0.95487895240064
  N   5.03968561697650      0.79824807385757     -1.35499906388205
  C   1.70163183987513      0.21272211392771     -0.08241656071361
  N   1.53225698083728      1.49935947915925     -0.03145045478571
  C   0.48280803359477      2.24569483961917      0.32549956819292
  N   0.80046693849241      3.31932276695219      1.08617323951894
  N   -0.77424603788916      2.20763772637907     -0.09224911153962
  C   -1.62235997227901      1.22689500721634     -0.23300653086177
  N   -2.84486729109936      1.48323797122950     -0.75000825754166
  C   -3.59978402889144      0.40331103567629     -0.50829408384751
  N   -4.87456073513759      0.34295141206182     -0.89573593095860
  H   -0.83726954696119     -1.98555411833410      0.98986996024550
  H   1.36291495091134     -3.03600035315155      0.76489509574710
  H   3.93750220999684     -3.49325312647242      0.10056027944361
  H   4.81460707724074     -2.23806345863390     -0.67706989149852
  H   0.12555210823046      4.06178471605902      1.14310920921744
  H   1.77354266014551      3.55461704296309      1.17475694026252
  H   -5.27148798417988      1.11568962309942     -1.39839704619350
  H   -5.44479073052702     -0.45702608770113     -0.69246271243245
