27
Coordinates from ORCA-job ./opt_b97-3c_parallel
  N   0.00053475422876     -3.34874578568289     -0.02058151509584
  C   0.00030606501352     -2.18969552357766     -0.01508087909136
  C   0.00004155650201     -0.75569792703559     -0.00843389961008
  C   1.29554203674179     -0.20382208487468      0.02125730794793
  N   2.31816515869119     -1.07687960860009      0.03932206317997
  C   3.46569935970565     -0.36145451477168      0.04228874318934
  N   4.65054211822062     -1.00737154676441      0.09942370121439
  C   3.22421591769355      1.01733189618824      0.02667935584578
  C   1.83550618022890      1.18590316612678      0.01374348377181
  C   1.27885044810571      2.46075429129902      0.00772507073574
  C   -0.00060691036559      2.98747083674666      0.00830782001839
  C   -1.27987642139025      2.46032033786471      0.00437132469231
  C   -1.83609437388952      1.18537268702929     -0.01282593871528
  C   -3.22474917099848      1.01643969062784     -0.02706071272581
  C   -3.46573930658622     -0.36222848094519     -0.05502405681265
  N   -4.65037590683309     -1.00803483759475     -0.11777397677894
  N   -2.31798025538519     -1.07725525002723     -0.05868669523636
  C   -1.29565031940384     -0.20404095487649     -0.03291248445820
  H   5.49107501703966     -0.52267109756602     -0.15404826240365
  H   4.62985393563183     -1.99740397337715     -0.07431314509633
  H   3.95304564817282      1.81211666533156      0.03375616385694
  H   2.04275976857493      3.23156330584743      0.00761811013490
  H   -0.00078929858326      4.07157164902585      0.01305677443354
  H   -2.04406979617068      3.23082010345561      0.01132014956970
  H   -3.95386450987906      1.81099083030198     -0.02693771811169
  H   -4.62923982054051     -1.99959372503150      0.04693981590842
  H   -5.49103757762522     -0.52597288701965      0.14024045873703
