27
Coordinates from ORCA-job ./opt_b97-3c_parallel
  N   4.72044209497309     -1.38865609653737     -0.74898451450958
  C   3.81214250254708     -0.69673384810207     -0.51361700596055
  C   2.74531342828270      0.15074990701445     -0.22969917768760
  C   1.38063914397394     -0.20177888882731     -0.06062980963886
  C   0.96357742225274     -1.50761994563949     -0.08430217020672
  C   -0.27337289883110     -2.16273407748704      0.14394834753765
  N   -0.16253923587846     -3.47894943318164      0.49096659626333
  N   -1.53097382734845     -1.78628213046053      0.00545199543532
  C   -2.17786220601714     -0.65399601230625     -0.06931090824844
  N   -3.49794345917549     -0.67996747341441     -0.33315348201706
  C   -3.89224950470302      0.59767568888781     -0.17387559084884
  N   -5.15937549049738      0.97038743495168     -0.35942879554564
  N   -2.94565860577765      1.50510361748551      0.18433549269399
  C   -1.81138694460123      0.79079019100571      0.22029446015176
  C   -0.61110790074604      1.45548482935947      0.40967967416990
  C   0.71730365959752      1.09487738604017      0.26304428661523
  N   1.63682377942104      2.08188969771491      0.33462410572579
  C   2.83448820264958      1.53613919086079      0.04280570146098
  N   3.94499550107559      2.27918722864506      0.04139333771708
  H   1.77858756703957     -2.20461214167843     -0.25139801777014
  H   0.72701205422954     -3.94199517759589      0.49421745198354
  H   -0.99209828509441     -4.04078635531166      0.42026730603434
  H   -5.85173895587872      0.28435014483832     -0.59407528544795
  H   -5.43045557887985      1.91867883595844     -0.17897326093503
  H   -0.73793157557021      2.51370621059771      0.59879445235453
  H   3.87132021919193      3.26589731027790      0.20795337104100
  H   4.82730494306480      1.89538986450409     -0.24177081266805
