29
Coordinates from ORCA-job ./opt_b97-3c_parallel
  N   1.34110143093294     -3.57329176506862      1.42108106395075
  C   1.01673893035031     -2.53422593350624      1.01521690369071
  C   0.63245920995356     -1.25347264949106      0.53052376045539
  C   1.72341505829068     -0.42204949199645      0.22209180178406
  C   3.03331685178880     -0.84876253520212      0.09891148837821
  C   3.74757414143906      0.24317029176104     -0.45242301745387
  N   5.02689572302365      0.24274852783907     -0.84056277493842
  N   3.00371390311509      1.36257222465442     -0.59120185080717
  C   1.77205268598750      1.04233300850579     -0.15668263749773
  N   0.91768853336866      1.99690330072377      0.07303096464404
  C   -0.35773481388311      2.16160698189495      0.31115987967280
  N   -0.65797041282656      3.29996364920596      0.98050306675454
  C   -1.47238869306371      1.37681330843198     -0.15748910456430
  C   -2.63923324103575      2.13176526846467     -0.43775870365812
  N   -3.54004349533172      2.84382764685071     -0.61987629903917
  C   -1.60618495065717     -0.00536929361479     -0.25975459288803
  N   -2.80807313251866     -0.47868583579792     -0.63591857871940
  C   -2.80829394601992     -1.79840282521845     -0.35416941321087
  N   -3.88478298679790     -2.54211194403503     -0.63975793808830
  C   -1.59047802225614     -2.23922351990663      0.20563422447156
  C   -0.74207630478484     -1.13996057702942      0.22904621117421
  H   3.40794476803537     -1.84266807887899      0.27642708226698
  H   5.63224940548317     -0.53263490956304     -0.64930442291255
  H   5.42782143196978      1.09613284909671     -1.18625711438737
  H   -1.61067853949231      3.61176470456304      1.05174026549910
  H   0.06924402502583      3.98948570671988      1.05534259281077
  H   -4.71100879409489     -2.07748728489714     -0.97243224280080
  H   -3.96899250866425     -3.48255973538798     -0.30400729632356
  H   -1.32714457803876     -3.25192638281681      0.45829008923623
