24
Coordinates from ORCA-job ./opt_b97-3c_parallel
  N   -3.03233923747254      2.81282476251124      0.64493581288303
  C   -2.25108964935660      1.98591878899891      0.41160535547214
  C   -1.26190814809842      0.99976916043009      0.12353337749502
  C   -1.78708571679686     -0.29353496085298      0.04818622129637
  C   -3.16516581296049     -0.52543328120283      0.14252683349755
  C   -3.38431987895488     -1.85042380101371     -0.22671042822001
  N   -2.26196090811980     -2.52462360419232     -0.51408877835383
  C   -1.22644595377950     -1.67146306384695     -0.32982892638479
  N   -0.03497827186418     -2.19273572415544     -0.37299400195958
  C   1.15466257694963     -1.71634457394079     -0.08712617024895
  N   2.17481922642171     -2.59585727190934      0.00952341965479
  C   3.24667207045325     -1.84903133589191      0.31068593510955
  N   3.06368888814171     -0.52154972968904      0.36953047221300
  C   1.74207760987950     -0.34906753294579      0.14355156081584
  C   1.30859592743480      0.96730043380006     -0.01150881419318
  C   2.38656530974447      1.90242683632975     -0.02006676702185
  N   3.14776337392635      2.77789983572709     -0.07045318832837
  C   0.02557043977170      1.58589144262628     -0.11586145499108
  N   0.02893729612606      2.91338379447032     -0.37385246748206
  H   -3.92282137157807      0.20148524361125      0.38074670650019
  H   -4.34356509204264     -2.34355202481677     -0.29276288084829
  H   4.21399587383634     -2.29173873542608      0.49622405917840
  H   -0.82291671345931      3.44501088567695     -0.35291385747513
  H   0.89057887409772      3.43224810510205     -0.36571678240867
