27
Coordinates from ORCA-job ./opt_b97-3c_parallel
  N   -0.12155526577287      3.13095303384803     -0.93382158174206
  C   -0.04701659749805      2.01835806952418     -0.61164724727842
  C   0.14307011080285      0.64004894745948     -0.29577596928471
  C   1.51437230510300      0.31108577908166     -0.15759765624177
  C   2.49233659724015      1.28195205491643     -0.06346262236112
  C   3.69161381241057      0.61760753743276      0.29239626794070
  N   4.86803649176446      1.18920098785177      0.56438099910983
  N   3.55584102007284     -0.71911341034711      0.35251298208128
  C   2.26923212387672     -0.99942465393321      0.05941761528525
  N   1.97199627154457     -2.26069842628375     -0.11701161365628
  C   0.85982639216022     -2.92693530002336     -0.35949194050125
  C   -0.49863897650824     -2.67368660390789     -0.26020120507233
  C   -1.29771222539266     -1.55622032241739     -0.04165507153144
  N   -2.61645783110409     -1.79125398492146      0.11664046649033
  C   -3.22615140908950     -0.59663591499824      0.20362865813637
  N   -4.53851974131239     -0.49274826503816      0.40887638471962
  C   -2.31546094232891      0.48725570442602      0.05850678509578
  C   -2.75323516839852      1.80606350965349      0.19850251448708
  N   -3.28562037157439      2.82850761331446      0.36232968071457
  C   -1.03548616092772     -0.09076598964576     -0.09161594322773
  H   2.35802296742998      2.34552480226122     -0.16416915643891
  H   5.01760026818134      2.17232701397378      0.43912016031138
  H   5.65502483229229      0.60257348376913      0.77760821103873
  H   1.06773872342769     -3.96333023991792     -0.61716996856170
  H   -1.10208906226145     -3.56856670346197     -0.34900910008932
  H   -5.08422459428549     -1.32418079743429      0.54302167213084
  H   -4.97737993205150      0.40573342401756      0.50282535604604
