31
Coordinates from ORCA-job ./opt_b97-3c_parallel
  N   -4.68895853385937      0.40083956408500      1.39614779214610
  C   -3.64082091315489      0.24285421228995      0.92098946582883
  C   -2.35211114944578      0.08190242992248      0.33776039460562
  C   -1.83600595426130     -1.20381538839317      0.39785634310800
  C   -2.64685046103649     -2.29165687057773      0.81841761560784
  C   -2.09558957695733     -3.46893387233972      0.34235559171229
  C   -0.89703802560660     -3.19348012689666     -0.33020749188327
  C   -0.63261871345338     -1.81838000159316     -0.24957046408379
  C   0.65869193551621     -1.31473075203449     -0.42218799027805
  C   1.58038829908999     -2.23442156848351     -1.00507716799266
  N   2.28669894884844     -2.97399096136061     -1.55271841490626
  C   1.21960711542879     -0.09120073560920     -0.00640298671701
  C   2.58754642451894      0.09295025890112      0.28804028798309
  C   3.61867981304720     -0.82587017159000      0.48593088845987
  N   4.55227911693191     -1.48487933006325      0.70816654119995
  C   2.75470067664243      1.49048503886193      0.51451315757933
  N   3.87666069699731      2.09987569618993      0.89353888909390
  N   1.60959026506406      2.16693011134132      0.32035456362189
  C   0.65190446989259      1.26345487476406      0.04164081096825
  C   -0.59137373179110      1.78413182382297     -0.38595170083824
  C   -0.51684877343743      3.13839444496714     -0.81260799920189
  N   -0.58780791467023      4.22496875561715     -1.21759353926886
  C   -1.90454014077263      1.27445091676144     -0.34396759339524
  N   -2.89184076531622      2.04164398485093     -0.86400012550288
  H   -3.60662334302819     -2.19310714611104      1.29600495161028
  H   -2.52172964976177     -4.45199871019971      0.46988299702557
  H   -0.21423786620752     -3.92818526495769     -0.72172915397417
  H   3.87871972049828      3.09532256600915      1.02362153689759
  H   4.72729005724694      1.58410324367790      1.02952338368519
  H   -3.85378724064159      1.79661919348993     -0.71227222354560
  H   -2.70673923543385      2.99885919174672     -1.11451561495193
