31
Coordinates from ORCA-job ./opt_b97-3c_parallel
  N   5.31514446644765     -0.78447468975481      1.04517213497677
  C   4.29100349424118     -0.30119019009629      0.76889569102209
  C   3.07840471269244      0.29538796917079      0.43705667894194
  C   1.85894075194648     -0.36037099028682      0.10457198127933
  C   1.80011266835585     -1.71372266593652     -0.08864031790406
  C   0.76060925791655     -2.56671435800603     -0.53278793191232
  N   1.16243791015219     -3.69760204411504     -1.17809897624095
  N   -0.53390826545331     -2.51533224409879     -0.30804182376116
  C   -1.42301770299565     -1.61045776696709      0.02663851875083
  C   -2.68780693172219     -2.02188246053545      0.45922778562096
  C   -3.53153882293362     -0.91764046310233      0.51708067850647
  N   -4.81586362853139     -0.88211937683829      0.87910204122166
  C   -2.80432886837871      0.25563251949206      0.09822325545706
  C   -3.43748563854388      1.49838502428760      0.17741244892635
  N   -4.13181790615736      2.42214726296502      0.32382245168528
  C   -1.47352986759865     -0.10500792283874     -0.15508400701926
  C   -0.45854712920447      0.81358634917392     -0.45938664212094
  C   -0.88958506234302      2.09030255141144     -0.92621711252252
  N   -1.24956734774817      3.08496528150194     -1.40248760793182
  C   0.93413476714596      0.75431910243519     -0.22868137675950
  N   1.59511453583828      1.92219241613906     -0.20391074147199
  C   2.86077626159098      1.66959312888065      0.20066142927765
  N   3.73913177469603      2.66475990371236      0.33371776414964
  H   2.74482442426758     -2.22444801078253      0.06589286826203
  H   0.50053583431299     -4.44838405445528     -1.26308053802409
  H   2.13707557130175     -3.90992303919562     -1.28215165343333
  H   -2.95964522494693     -3.05141272732762      0.61829225088017
  H   -5.27360890332248     -1.69190867043802      1.25285869864351
  H   -5.31152684864185     -0.00659047315831      0.90207099165994
  H   4.66937057870147      2.50087624431564      0.67085537137698
  H   3.44910912763578      3.60288574665004      0.12531370115593
