26
Coordinates from ORCA-job ./opt_b97-3c_parallel
  N   -0.30129004801806      3.83477470168564      0.14957149484693
  C   -0.22397491068130      2.67922194647935      0.09673675031476
  C   -0.11954211616309      1.24856578841302      0.03418349966188
  C   -1.36048645400857      0.60619768074161      0.01701013174205
  C   -2.56657919460064      1.34281941971977      0.03966716151681
  C   -3.65079434472948      0.47269737200550     -0.01022134376409
  C   -3.17567865297323     -0.83165423364789     -0.06229464429970
  C   -1.76080926009036     -0.82995125925700     -0.04495899674831
  C   -1.11384143738994     -2.04814873250962     -0.06736772560615
  C   0.20150865951936     -2.52609193211448     -0.04568636490157
  N   0.31088645555060     -3.91956633803943     -0.10140864200717
  C   1.41620125124335     -1.84368917857820     -0.05248941312374
  C   1.84526352598511     -0.53004251364547     -0.04852084703368
  N   3.20619840482665     -0.38534458468623     -0.06734672028520
  C   3.46097710996050      0.93029824404737     -0.04045307664735
  C   2.30299670885694      1.69863149834468      0.00158078289850
  C   1.21534480567311      0.80386245693861     -0.00238656323340
  H   -2.62885831396380      2.41673944728942      0.08158236573293
  H   -4.68845284641573      0.76784004159024     -0.00905801019188
  H   -3.77518404252939     -1.72774775327767     -0.10407103888052
  H   -1.83237533937699     -2.86183879442882     -0.11567731771046
  H   -0.46444295695242     -4.43530440959434      0.27865732189152
  H   1.19202135277572     -4.29706694140130      0.20274701437004
  H   2.28222380787770     -2.49684005822558     -0.07446567895115
  H   4.47924080558736      1.29064373489366     -0.05195143845689
  H   2.24209351223662      2.77302520815719      0.03071382286586
