28
Coordinates from ORCA-job ./opt_b97-3c_parallel
  N   -1.63155220264494      3.98458442714005     -0.44098271533360
  C   -1.62795972741158      2.82283340259741     -0.34685151244609
  C   -1.66062116686887      1.43483030645126     -0.22501886561640
  C   -0.56930974172376      0.53827069153113     -0.38227666766847
  C   0.72388039467768      0.99554827014225     -0.52614903227046
  C   1.96555124613990      0.39455022946043     -0.36018928081214
  C   3.11163109313943      1.14861215360946     -0.17705936023774
  C   4.16265987315545      0.30377559168714      0.27791105046528
  N   5.39454021014069      0.73160640679819      0.60992616941461
  C   3.69561495167536     -1.01509858298765      0.34301556655974
  C   2.36755071586791     -1.04838781438448     -0.09431195304218
  N   1.77729207663898     -2.18701680073149     -0.37336808695425
  C   0.54372714643116     -2.51615540871251     -0.71831475314137
  N   -0.64514273695397     -2.01765877935172     -0.45871561743814
  C   -1.11426231364799     -0.82696748657583     -0.16308519058768
  C   -2.46275589420447     -0.66654138312236      0.24282824127509
  C   -3.38206096059410     -1.67755664378029      0.52907073609348
  N   -4.21019070799161     -2.45392142894460      0.78542929010105
  C   -2.80236324501934      0.70593017068157      0.19359106288827
  N   -3.99528361768439      1.22627599083509      0.49417636534545
  H   0.78718606029439      2.07429452877938     -0.63287260490714
  H   3.17209904384302      2.22249167302245     -0.26800467642502
  H   5.69233976188693      1.65948588795842      0.37223440348240
  H   6.11445079763403      0.07393272117940      0.84523712768962
  H   4.27423268310465     -1.89365655288036      0.57539326055449
  H   0.49231014730868     -3.49073510707449     -1.19806067787686
  H   -4.76382762586980      0.62877610897026      0.74110525730714
  H   -4.17896631202308      2.20370643990216      0.35710556678031
