29
Coordinates from ORCA-job ./opt_b97-3c_parallel
  N   -1.73639388747149     -4.15192936781604      0.47142269221447
  C   -1.69350142556524     -2.99483642657385      0.34113728628274
  C   -1.70934833868890     -1.61000930487485      0.18069103082500
  C   -0.59633768217348     -0.73055011051386      0.18682387876463
  C   0.68830699823409     -1.20965840736880      0.26927217971279
  C   1.94956383758609     -0.63299056539803      0.11760067810350
  N   3.01453905267384     -1.44397086819447      0.09094674109002
  C   4.06546370928574     -0.60773758494590     -0.15022180318757
  N   5.30992309314863     -1.08702746118883     -0.23858131509744
  N   3.78176654517477      0.69677196362925     -0.27227412325485
  C   2.43748203991371      0.76109716477355     -0.09519360043024
  C   1.84004257551764      1.99631981868129     -0.03699671069495
  C   0.51625047612022      2.43969767480490      0.17693897929199
  N   0.39529991866751      3.75821274466716      0.51179336872100
  N   -0.66457018574728      1.85540875756131      0.04442271085684
  C   -1.15276752796716      0.64826741068168     -0.02391723792243
  C   -2.54611536906765      0.48870222648000     -0.23574434404320
  C   -3.47040785696424      1.51349708916465     -0.44237381407606
  N   -4.29056384195227      2.32071836344384     -0.61772285054001
  C   -2.88878668183952     -0.87542064835873     -0.09969479547965
  N   -4.11395014795040     -1.38794707435685     -0.21059837507608
  H   0.76008938135469     -2.28430523303355      0.39522400447529
  H   5.45485725785563     -2.07912313872715     -0.23424474600424
  H   6.05574028122973     -0.47902345507301     -0.52025033300325
  H   2.56555579332329      2.79474056023804     -0.13902600866065
  H   1.18793810759924      4.37212959193258      0.49397007324573
  H   -0.52134008402138      4.16362541077395      0.44212593289198
  H   -4.90153637397410     -0.79778888383774     -0.41063489963758
  H   -4.27563344520174     -2.36966144827053     -0.07270867406775
