26
Coordinates from ORCA-job ./opt_b97-3c_parallel
  N   -0.27244951365091      3.65717534899750     -1.01531465516440
  C   -0.08546286003067      2.55644928016462     -0.69714940671099
  C   0.12790253444467      1.19686168080795     -0.32262806845936
  C   1.47353246872281      0.88306340475095     -0.05946979571130
  C   2.48639033434868      1.84232294768422     -0.00461117641902
  C   3.63398173786261      1.19376119758116      0.47223624611982
  N   3.45785223889742     -0.10794406981778      0.69770069291265
  C   2.15478798178604     -0.38154030607764      0.35414711489979
  C   1.82072017038279     -1.69995611069882      0.26317913280415
  C   0.64977675185661     -2.38271225082753     -0.17244058814810
  N   0.86981912904713     -3.63031844401937     -0.67010424943274
  N   -0.62081325337333     -2.07464706812595     -0.06851792622624
  C   -1.34216241871365     -0.99574923213797      0.09979966266340
  N   -2.64911604033673     -1.16506243713584      0.36725583303843
  C   -3.22483723191148      0.05464263987586      0.27645953158226
  N   -4.53102646520803      0.19611472249885      0.54454454785113
  C   -2.31833554996096      1.07117867196293     -0.08545913007532
  C   -1.06595267418416      0.47473705215469     -0.14766538162875
  H   2.38184884784666      2.89186996510807     -0.22086344195097
  H   4.59435937669641      1.65348216130852      0.66166322873966
  H   2.65043794340821     -2.34827553632769      0.52048763537418
  H   1.79262724706085     -4.01686081035896     -0.72918797949126
  H   0.07753864948368     -4.23336937700789     -0.80147794471700
  H   -5.01258467311285      1.04855398567618      0.32977264104337
  H   -5.07669829543526     -0.63222920760080      0.70164654464394
  H   -2.53857619672708      2.11767611397389     -0.21199044664335
