23
Coordinates from ORCA-job ./opt_b97-3c_parallel
  N   -0.01115507357931     -3.52233892570476     -0.41122152746791
  C   0.04781243280244     -2.36999616589515     -0.29511724866710
  C   0.21917731861612     -0.95592819377837     -0.17321084811933
  C   1.55638816113301     -0.54495848330384     -0.04952098567805
  C   2.62484178195740     -1.43780447172938      0.01666874565278
  C   3.77744884532482     -0.67402567396098      0.23849216778862
  N   3.53836358205898      0.63877991871683      0.30591126434912
  C   2.19347707638949      0.79898378906993      0.12614904640744
  C   1.74578466716232      2.09261949089553      0.02542002791079
  C   0.51035895393138      2.71987578734730     -0.22285691510077
  N   -0.74402499595077      2.36275446155988     -0.21407710837216
  C   -1.37556806658004      1.20734624602628     -0.06239226423919
  N   -2.70749840379664      1.25619279348647      0.07598741588748
  C   -3.10184531756594     -0.03835669836257      0.09019885007284
  N   -4.37925510394309     -0.38226543452338      0.24454864239154
  N   -2.12963188477702     -0.96445331299806     -0.06554382049687
  C   -0.99535907155554     -0.25162980028578     -0.12435542657487
  H   2.56570490730027     -2.50932142192708     -0.06457368350629
  H   4.78428341382530     -1.05057774727756      0.35131956246621
  H   2.56422481484552      2.79764538323174      0.11057610336569
  H   0.62843537472840      3.78278816856008     -0.42471993394564
  H   -5.08183556736240      0.32873844265491      0.32427160719418
  H   -4.64492948056532     -1.34867669120296      0.20230851038028
