27
Coordinates from ORCA-job ./opt_b97-3c_parallel
  N   -3.91575827727616     -2.68478790958798      0.00501916425820
  C   -3.12053053695135     -1.83485624967152      0.00264842102425
  C   -2.21484189793766     -0.77051528097134      0.00041180092586
  C   -0.79726638930091     -0.85305585052318      0.00004782811731
  C   -0.18313561676850     -2.10498570367248      0.00128683930029
  C   1.11246593273730     -2.58725895006748      0.00164341360773
  C   2.38452562957582     -2.02339701929330      0.00092113310755
  C   2.88618014653173     -0.73588130008257     -0.00051394983482
  N   4.24304366079344     -0.61116709732235     -0.00086151285989
  C   4.51269542813708      0.70449883826287     -0.00223905573292
  C   3.36042146367945      1.48884251497120     -0.00281199942530
  C   2.26778298429552      0.60799863419112     -0.00175663523597
  C   0.96489593353710      1.08447597906097     -0.00201782548956
  C   -0.30063279034432      0.52233381718180     -0.00136074962945
  C   -1.44810408025761      1.37173740001048     -0.00178174145715
  C   -1.45876768522753      2.76813625544508     -0.00207837733272
  N   -1.51560801311887      3.93106031182260     -0.00190666794858
  C   -2.61920463042959      0.58693787452232     -0.00085763063683
  N   -3.88054789268168      1.03521933287227     -0.00523699257743
  H   -0.91394022928012     -2.90690588825188      0.00219038795229
  H   1.14441224671472     -3.67009532656441      0.00276218931660
  H   3.18913324148243     -2.74919483183902      0.00155533201185
  H   5.53611077374832      1.05037290977694     -0.00279277565047
  H   3.30058449339565      2.56572636086059     -0.00389886291863
  H   0.92961512699862      2.16986377139380     -0.00304072434803
  H   -4.07728605379537      2.01903586335377      0.01050982892130
  H   -4.65445417695754      0.39678791512177      0.01241833893440
