25
Coordinates from ORCA-job ./opt_b97-3c_parallel
  N   -0.34083081837032     -3.57880465073473      1.12083261278912
  C   -0.12041467847537     -2.49790361774257      0.76452036957341
  C   0.11397596983223     -1.14303175803604      0.38268092311416
  C   1.46186576586939     -0.82561527973223      0.13544052810192
  N   2.35048069166692     -1.82441577136494      0.15526100650742
  C   3.52302669652463     -1.32984171381230     -0.33799924937254
  C   3.44667593403370     -0.00565315844464     -0.68917996491342
  C   2.13425060454369      0.42916974489446     -0.34874103582490
  C   1.82282143996951      1.75453570332405     -0.28871055478326
  C   0.68132991278332      2.45003733694444      0.21737618900988
  N   0.94737765333023      3.70813764421835      0.68676630881069
  N   -0.58654101419143      2.15009907833549      0.16459730004159
  C   -1.30588344127562      1.07557571351694     -0.06768253996354
  N   -2.60687420419837      1.21788592502664     -0.35871475292245
  C   -3.09772967840193     -0.03975296887504     -0.29690657895437
  N   -4.37391898816260     -0.31249284430163     -0.56401104561530
  N   -2.23118579949439     -1.02197609908250      0.05372205428472
  C   -1.05309617476590     -0.39651093120049      0.15208421056158
  H   4.38061195028400     -1.98147008080439     -0.41918719257738
  H   4.23695517442385      0.62730840121869     -1.05856078290866
  H   2.61910496826970      2.42042686198881     -0.60486976098749
  H   1.85441250768333      3.90960663473071      1.06719125990456
  H   0.16802291624220      4.19918789071802      1.09099863937835
  H   -5.00502027710171      0.42782873047344     -0.80629461988050
  H   -4.71195873151894     -1.25165318815831     -0.46438894177374
