26
Coordinates from ORCA-job ./opt_b97-3c_parallel
  N   -0.07704978123025      3.39220560276862      0.02915996207516
  C   -0.06637032929444      2.23302476593962      0.02636704078476
  C   -0.04226859450885      0.80150387726121      0.01948844078509
  C   -1.31745607829744      0.22065750069752      0.02773447748945
  N   -2.36651511333963      1.06607907254267      0.03913811379512
  C   -3.48715467717177      0.31804302220633      0.03100933836374
  N   -4.69083781842216      0.91581575737342      0.07026473668983
  C   -3.20437840302650     -1.06068228672718      0.01460982078551
  C   -1.81910147836118     -1.18994550472392      0.01131306113582
  C   -1.22626348191134     -2.45396948389827      0.00272782218877
  C   0.06296391305145     -2.94502446808106     -0.00024651347680
  C   1.33399648372969     -2.38916427226473     -0.00030685150177
  C   1.84712078110503     -1.10185528879433      0.00039384364794
  N   3.19659680903228     -0.96969792090438     -0.00664365669296
  C   3.40109840765773      0.35704622237630     -0.00394766056135
  N   4.62268300434936      0.90093133727734     -0.00494492570254
  N   2.28943757185495      1.13541296313596      0.00485028409477
  C   1.26954814696456      0.26858245551853      0.00833211901663
  H   -4.71885694507790      1.91265400891089     -0.05385917240427
  H   -5.52590996373466      0.39755830130816     -0.12570410347081
  H   -3.91256815249224     -1.87389804470329      0.01217412262235
  H   -1.97095622391294     -3.24301707153759     -0.00279356360558
  H   0.09127776923918     -4.02870619110152     -0.00435715061233
  H   2.13393041281750     -3.11944915322605     -0.00476717399226
  H   5.43392393648114      0.31399698753298     -0.03640907937372
  H   4.72143848519846      1.89800870601284     -0.02720439798059
