25
Coordinates from ORCA-job ./opt_b97-3c_parallel
  N   1.45109721953415      3.52672254054667      0.86248532470198
  C   1.23430830614175      2.40468249057305      0.66262754963635
  C   0.95740955490119      1.02238963125749      0.43960451183686
  C   2.09068670007980      0.25095246411689      0.14379115831128
  C   3.33074061891645      0.79148578816855     -0.18840825470276
  C   4.06594508144625     -0.24451543156282     -0.78530196142948
  N   3.44045251918627     -1.42758039609226     -0.79015344516183
  C   2.24409235712877     -1.22488103423069     -0.17997178097785
  N   1.56701515197672     -2.25641881079506      0.23647880370065
  C   0.36978917871572     -2.41643449934951      0.75749738617553
  N   -0.77290878868862     -1.81623075862858      0.50669227433412
  C   -1.10821065480000     -0.60137445907256      0.15750137264202
  C   -2.43251515785607     -0.29730987205191     -0.22556298501623
  C   -3.47044616364047     -1.19910777007497     -0.46326767365435
  N   -4.39265475180579     -1.87486055376329     -0.67938498175306
  C   -2.60705074510011      1.11209293323985     -0.17351498081685
  N   -3.74841024062883      1.74716789874783     -0.45179657197190
  C   -1.38883192956509      1.70720111909110      0.21331467373722
  C   -0.41409330406131      0.72307161594979      0.34672536980243
  H   3.62869697288495      1.82238595302001     -0.09714714165526
  H   5.05311770555865     -0.15375872218617     -1.21646441723947
  H   0.27196206171726     -3.30794246371961      1.37122904889030
  H   -4.57316357739783      1.23010260854581     -0.70230782796744
  H   -3.84056652819834      2.73641217288479     -0.31502280285924
  H   -1.22220843464663      2.76811829158683      0.29964086893586
