26
Coordinates from ORCA-job ./opt_b97-3c_parallel
  N   -4.79701143502925      1.57277089648858      0.03526450404021
  C   -3.83961790931237      0.90849122415507      0.03128127100679
  C   -2.72718629896508      0.06885829257479      0.02394611944643
  C   -1.36535999983454      0.42315925425708      0.00885423833193
  C   -0.95179520167948      1.74724359627697      0.00836514314928
  C   0.26725255623785      2.41533375942280     -0.00330803923174
  N   1.54917621189602      2.08486245651794     -0.02025128331617
  C   2.17339669755577      0.92638444652431     -0.03305416169265
  C   3.56593158503494      0.91721886149663     -0.04989408390207
  C   4.03831374327277     -0.40814310084859     -0.05926998257620
  N   5.32963922299400     -0.77956961278559     -0.09421501961938
  C   2.93671754886934     -1.29150714756869     -0.05247891127988
  C   1.74945826377122     -0.57112611315061     -0.03448117965294
  N   0.61432508345146     -1.23659141191254     -0.02179925599873
  C   -0.65092664050824     -0.89105206754920     -0.00294336923894
  N   -1.55479117179853     -1.90622709934605      0.00465892785670
  C   -2.77292837379716     -1.35668383712525      0.02041927519629
  N   -3.88249588052724     -2.10436524587071      0.04998858634862
  H   -1.78334338630076      2.44433929384670      0.02067087371808
  H   0.13990462275596      3.49526858267895      0.00289685514838
  H   4.16518407285460      1.81339453886092     -0.05471719391708
  H   6.06080334122272     -0.10021769292516      0.00503591126528
  H   5.58743607267812     -1.74382711205514      0.00423627738125
  H   2.97774711708485     -2.36884232240075     -0.05908594987203
  H   -4.78985178849384     -1.68546305669425     -0.03746207938745
  H   -3.79627358823358     -3.09999943466659     -0.04241565210503
