32
Coordinates from ORCA-job ./opt_b97-3c_parallel
  N   -3.81742235027978     -3.57990395917394      0.95054595730996
  C   -3.40179082133072     -2.53012127099290      0.66500544399356
  C   -2.97304191663316     -1.25270232791448      0.31113904251181
  C   -1.66183474108945     -0.75082801453826      0.26920829985067
  C   -0.56890246177276     -1.58886457135249      0.42467331837611
  C   0.78059144480619     -1.44117483646165      0.18210171710161
  N   1.51028020191188     -2.58318930382630      0.07485974931565
  C   2.76302612945850     -2.21718938743811     -0.19889203119528
  N   3.73108377003130     -3.09790292758903     -0.44023454030638
  C   2.92013465745320     -0.78746311627241     -0.21425659908334
  C   4.13344532482602     -0.17125295253389     -0.52920573076785
  N   5.18514899490068      0.21703631543883     -0.84098285939801
  C   1.65663586166289     -0.25089883382848      0.04197623158924
  C   1.45004302764166      1.10918302611574      0.39010919140594
  C   2.60128311044076      1.74284906598174      0.92363997843302
  N   3.48141395314524      2.31783581238397      1.42075185995043
  C   0.35115465034501      1.99142212867889      0.23919763571573
  N   0.56816708996776      3.28147098897453      0.57956512446471
  C   -0.96639624344835      1.73675997675342     -0.29624863331535
  C   -1.59850436725230      2.90389201252150     -0.81353173059631
  N   -2.01291850195492      3.91120155008819     -1.21721855582034
  C   -1.82526177088947      0.64360217354474     -0.21661216259667
  N   -3.12387372384373      0.87320882755809     -0.53978602697502
  C   -3.81546191008377     -0.22112211088878     -0.21884506754908
  N   -5.13301020863152     -0.30292814313860     -0.38854950148162
  H   -0.82626855685252     -2.62234379295348      0.62497328083987
  H   3.52005233401283     -4.07962840285541     -0.43269484880633
  H   4.66279584913252     -2.79754378401556     -0.66451388023700
  H   1.49547873173059      3.61099128338947      0.78516030656833
  H   -0.14112418840112      3.97527735073523      0.42435224904705
  H   -5.62768278828038      0.47574519512725     -0.78584440028283
  H   -5.64452703452535     -1.12469838861648     -0.12348278116345
