27
Coordinates from ORCA-job ./opt_b97-3c_parallel
  N   3.96386143710458      2.59473928990109      0.00046464146456
  C   3.14059454540307      1.77136080308692      0.00054468224848
  C   2.19423330390130      0.74388352483272      0.00015457588530
  C   0.78106230426180      0.88783288173793     -0.00047447927259
  C   0.21358726025334      2.15798398300480     -0.00065360933954
  C   -1.07334676180377      2.66325375450467     -0.00124216747555
  C   -2.34538883290502      2.09747866918343     -0.00194843897162
  C   -2.83984063177259      0.80875500227441     -0.00231878858427
  C   -4.22293575677803      0.57010477351953     -0.00307143241711
  C   -4.47328551465065     -0.80717407943214     -0.00330120583812
  C   -3.26278425742820     -1.48687247505956     -0.00270515127119
  C   -2.19729602717799     -0.55760427923106     -0.00207613382789
  N   -0.97076080910667     -1.01889792091080     -0.00148455099538
  C   0.23118399058838     -0.47982889281560     -0.00083940409146
  C   1.34706797032931     -1.36929770874584     -0.00038754089950
  C   1.29728807589022     -2.76540444371286     -0.00065247553462
  N   1.35080886076703     -3.92753320556760     -0.00103021371062
  C   2.54559142103870     -0.63026484947046      0.00023737657578
  N   3.78913674054263     -1.12581933982874      0.00111958586334
  H   0.96443790645219      2.94123569926327     -0.00022891500065
  H   -1.09592127538163      3.74619098540912     -0.00115773413503
  H   -3.13353703390177      2.84416839321877     -0.00229334648480
  H   -4.97181912971551      1.34763041172787     -0.00341192432284
  H   -5.45152539998377     -1.26267102310979     -0.00385775617367
  H   -3.10721250349867     -2.55293124726285     -0.00270129296973
  H   4.58781617801208     -0.51843615531448      0.00001050277468
  H   3.94495751345966     -2.11722248600271     -0.00032945089596
