27
Coordinates from ORCA-job ./opt_b97-3c_parallel
  N   -0.00241414309070      3.82833873771995      0.19094514456050
  C   -0.00169599460814      2.67100451735553      0.12484126705847
  C   -0.00080098151360      1.23520628245452      0.04807776213785
  C   1.29296186759268      0.69473101693080      0.01350809687885
  C   2.43395391359849      1.53302965864277      0.02305136513174
  C   3.58930299169345      0.76042861478024     -0.03652429710504
  C   3.22110774470484     -0.57804112700369     -0.07952217477484
  C   1.80904141154631     -0.69241877695450     -0.04957349686675
  C   1.26745773176639     -1.96485281419611     -0.05551362005425
  C   0.00157389017136     -2.54884170660904     -0.03035193986214
  N   0.00245891276355     -3.95795022288694     -0.07888814897067
  C   -1.26504966591591     -1.96644812709776     -0.05515401910088
  C   -1.80823641875462     -0.69469529557732     -0.04910855417017
  C   -3.22045135814976     -0.58210044327593     -0.07870088210306
  C   -3.59032176225624      0.75591102254517     -0.03566969316683
  C   -2.43593393188894      1.52996674368765      0.02358800296592
  C   -1.29388977496985      0.69310563488882      0.01379593308671
  H   2.40472330622597      2.60854376869370      0.06329553375256
  H   4.59806542285361      1.14222374891951     -0.04706767291905
  H   3.89073600785100     -1.42329572916768     -0.12451137769185
  H   2.05324016944770     -2.71451204439845     -0.09557723920600
  H   -0.82253595047396     -4.38704669965587      0.30679396607750
  H   0.82807297999707     -4.38600644686597      0.30662516536330
  H   -2.04989873619274     -2.71709805138324     -0.09497133281602
  H   -3.88902387317534     -1.42819977251934     -0.12349465955816
  H   -4.59956630719470      1.13643498712610     -0.04597903861231
  H   -2.40804762092796      2.60551768854708      0.06378916136463
