31
Coordinates from ORCA-job ./opt_b97-3c_parallel
  N   4.54330709555277      2.13362977795911     -0.54279236371852
  C   3.47334672658082      1.72764791836372     -0.32943116083827
  C   2.17305659323292      1.24884475205099     -0.05550883965682
  C   1.96899021835928     -0.12607669318891     -0.25089554733090
  C   2.97650458126125     -0.98301622408101     -0.68018201391287
  C   2.55249950974893     -2.28379641553211     -0.35798526151734
  N   3.21160400888250     -3.43395017006693     -0.53628562947965
  N   1.32169942807773     -2.30675955455386      0.21448933327220
  C   0.88478047620579     -1.04059472495738      0.24706125959717
  C   -0.46830800239926     -0.85230261128972      0.59597192132181
  C   -1.06476447358597     -2.00185114926824      1.19178590492542
  N   -1.55524127539551     -2.87957336828019      1.77044448122588
  C   -1.34441477624842      0.19041688714281      0.25565069298826
  C   -2.72102242243611      0.04474661425696      0.05868283492042
  C   -3.55990506303553     -1.06979296194910      0.11848291734009
  N   -4.40244638396082     -1.87366574792015      0.08615843386998
  C   -3.24040981475456      1.28485639409289     -0.48117306094468
  N   -4.52213072156803      1.43548467541334     -0.82405874363090
  C   -2.21712171125602      2.22073520924540     -0.54817391789073
  C   -1.04027206194217      1.63269165325802     -0.06411344569220
  N   -0.00294074551957      2.36714736702461      0.23933095486660
  C   1.27917459271594      2.23278370161997      0.47637361423241
  N   1.82685721457594      3.24598613553035      1.19763506791297
  H   3.94278663486937     -0.69058658354648     -1.05434406136209
  H   2.75280603608315     -4.29328844607944     -0.29080593780104
  H   4.05719286572922     -3.47571622817407     -1.07236270861507
  H   -5.16193654991850      0.66298525473688     -0.74464584105466
  H   -4.84354469051140      2.26695328045581     -1.28269931432185
  H   -2.31000581197854      3.26279261643325     -0.80213914840860
  H   1.28482357024500      4.08783236997093      1.28301484004601
  H   2.82545206337284      3.33108409384674      1.26871832586926
