26
Coordinates from ORCA-job ./opt_b97-3c_parallel
  N   -0.09402781707847     -3.07489060477106     -1.39618248933387
  C   -0.02855547592153     -1.98049955402775     -1.01384608489787
  C   0.14700487472287     -0.62863752221446     -0.60947942483619
  C   1.49852178305065     -0.31314180903448     -0.30257273340921
  C   2.46567187496070     -1.26113938933252     -0.06660983394178
  C   3.54569242905462     -0.57630739386982      0.56785186109964
  N   4.64632629571869     -1.14313471245432      1.06071993605248
  N   3.36490314139117      0.75284970095725      0.65858800528394
  C   2.17671573987164      1.00396552830831      0.07781220025621
  N   1.87880251453597      2.21334084406228     -0.29920823443178
  C   0.77633799990476      2.71815825192025     -0.81768368957634
  N   -0.47313413430839      2.55975946373585     -0.48717817890525
  C   -1.19509245512148      1.56565093097723     -0.03507821380532
  N   -2.39445815049183      1.80292187778565      0.51526500908229
  C   -3.04565501035891      0.62664711464428      0.51850871291494
  N   -4.26864246585493      0.51176603038318      1.02291510310420
  C   -2.28862746538708     -0.44690113752328     -0.05729599347050
  C   -2.79068084123038     -1.74828662600916     -0.08635477121980
  N   -3.35022230658842     -2.76880541274671     -0.04330028893124
  C   -1.01863857629646      0.09031782835792     -0.32128323298739
  H   2.37578194600519     -2.32560962552009     -0.20319933652138
  H   4.84079318267884     -2.11808622700204      0.93159590024091
  H   5.34303613384414     -0.56189954991510      1.49254738323544
  H   0.95265042176277      3.51680931308123     -1.53576763212184
  H   -4.76302885007043     -0.36242029929357      0.99011875918395
  H   -4.71376878189982      1.31694299320538      1.42533008762972
