29
Coordinates from ORCA-job ./opt_b97-3c_parallel
  N   3.78078544797458     -2.97946889758221      0.43722336362174
  C   3.08273262789891     -2.05401778912291      0.32344881530244
  C   2.26840127053193     -0.93027771984006      0.18757016042982
  C   0.85129723953981     -0.93112021467444     -0.02367244005320
  C   0.21912940964770     -2.12941059019307     -0.23008602232150
  C   -1.12187181415244     -2.54819330855538     -0.41204885745991
  N   -1.28699021004559     -3.75268632364753     -1.02507540675419
  N   -2.24156301256394     -2.03292204692930      0.05873335241878
  C   -2.63281128859241     -0.81522010666236      0.34498814758538
  C   -3.91833938978145     -0.56663150793200      0.85974660635750
  C   -4.14326906803117      0.79297883623771      0.72084734616357
  N   -3.09536103202152      1.46079915825018      0.18182125931163
  C   -2.11081015082020      0.56162153367272     -0.00109077331634
  C   -0.83965338712355      1.06046129561862     -0.30497129832571
  C   -0.86536234352080      2.42406427901249     -0.72933888903783
  N   -0.86547079388058      3.49050971404776     -1.18464351082383
  C   0.43933110079596      0.48540825336707     -0.14456559667899
  C   1.61570271359996      1.25401100250987     -0.03265313690173
  C   1.83136832726528      2.63572233273097      0.02149039210239
  N   2.22637682866864      3.72567532012911      0.12239392329395
  C   2.73536173910564      0.38853713510569      0.18535111475637
  N   3.99035132491349      0.80197780042951      0.35810485735485
  H   0.90835475253657     -2.96775379434304     -0.23244345600564
  H   -2.17775813361874     -4.20627268556117     -0.92202044846302
  H   -0.49532347370076     -4.32155320719171     -1.26301691774008
  H   -4.60931112726869     -1.32880780676424      1.17708535863194
  H   -5.04037729830567      1.33569711411583      0.98130986375244
  H   4.72808340869395      0.14830994618381      0.54856240690836
  H   4.20892936714392      1.78341091618873      0.35856189610890
