23
Coordinates from ORCA-job ./opt_b97-3c_parallel
  N   -0.22610799601273      3.61466230063144     -1.11752265337011
  C   -0.09452358027173      2.52513127924186     -0.74386871767173
  C   -0.03682759571202      1.15805013004735     -0.33560450447032
  C   -1.28856850303485      0.54450711989916     -0.13874598888244
  C   -2.47867269172475      1.24657143105662     -0.07184186823028
  C   -3.47181336745757      0.44737727575465      0.56378978830110
  C   -2.95323920462647     -0.77418051373580      0.89916133614371
  C   -1.61240278217835     -0.84367144769315      0.39420110076248
  N   -1.03611497636424     -1.98793581400896      0.24199982553828
  C   0.15610513337963     -2.29701434305439     -0.32040799101991
  N   0.10542704086160     -3.32021002698044     -1.19991236620297
  N   1.34371368190300     -1.86341267311711      0.02484283436593
  C   1.77400592485956     -0.65826838631001      0.33434001102940
  N   3.02223397844834     -0.48709889914497      0.80818652423008
  C   3.23267010926515      0.83838701624910      0.70407879931187
  N   2.24178744102141      1.58449356594196      0.19148438040244
  C   1.23885702274516      0.69772971041785     -0.00847622134162
  H   -2.60515036112542      2.27741706569418     -0.35835740414261
  H   -4.48506521270826      0.77177127007595      0.74600652223182
  H   -3.46982467721261     -1.62036216433581      1.31923375616284
  H   -0.73286375640910     -3.87291872937558     -1.23823079252030
  H   0.97526661296360     -3.76244448269884     -1.44269943208509
  H   4.16451635169043      1.28588686264530      1.01765050175755
