32
Coordinates from ORCA-job ./opt_b97-3c_parallel
  N   -3.45009184038222      3.50424166498456     -0.90868091116607
  C   -3.04232964039416      2.44305905398799     -0.65207785096494
  C   -2.63755030358644      1.14663404248176     -0.34056394894056
  C   -3.54585333422696      0.11678149137527      0.05497515048451
  N   -4.87869974202808      0.25686879367668      0.06882992700310
  C   -2.80924730406516     -1.02061167298007      0.38042255314172
  C   -1.44311901664246     -0.77842410241425      0.16000513304453
  C   -0.50570017770861     -1.82231759984525      0.23629867081447
  C   -1.07629261254628     -3.03854641994303      0.70215961467806
  N   -1.53262169013389     -4.03494977360244      1.09133072904320
  C   0.85173713391676     -1.99636513970330     -0.21089829782613
  N   1.16021222488438     -3.27591048783677     -0.57325089851709
  C   1.92030224845970     -1.07004907942173     -0.25897556660893
  C   3.16393618552402     -1.66565782327676     -0.59577807141774
  N   4.16859063386622     -2.18070063807620     -0.87529808536914
  C   2.05459712414573      0.30701784294090      0.05692980066966
  C   3.28593213720522      0.90133745638436      0.27819005856679
  C   3.05864575118631      2.29425515695776      0.32243643049039
  N   3.95730038905134      3.25789883797182      0.56586371013103
  N   1.76479800672273      2.61499305393918      0.10723215507430
  C   1.09958228832741      1.44779451968092     -0.03265623849736
  C   -0.25802241617422      1.53645996366882     -0.28286372025977
  C   -1.31907121854616      0.65458697202513     -0.23656242345933
  H   -5.46615591130530     -0.45251270119662      0.46493237343560
  H   -5.29729512579905      1.14825851620813     -0.12986955774878
  H   -3.23584168858856     -1.96871345002426      0.65822480158365
  H   2.11987269887004     -3.57388515758193     -0.59731191883911
  H   0.47972402740755     -4.00392459826331     -0.45363687510457
  H   4.23435829562522      0.40026591161287      0.37159842800759
  H   4.93725119239546      3.05575927649494      0.61936642035894
  H   3.66946174005327      4.21634708217017      0.48217855365924
  H   -0.55264585071380      2.56771304700457     -0.44095918556721
