31
Coordinates from ORCA-job ./opt_b97-3c_parallel
  N   1.62836112519381      4.16508885032628      0.33178214291826
  C   1.64565363151115      3.00369310940563      0.22763946243412
  C   1.70245612752838      1.61762936406748      0.10264322548385
  C   0.59669992832137      0.71030065749882      0.13062544483754
  C   -0.69214718715943      1.17659866843264      0.23896902522238
  C   -1.96157478059136      0.61147714648259      0.13805327764333
  C   -3.09106225788885      1.41592897425241      0.14919379232370
  C   -4.24486596948036      0.62497633132854     -0.10491051952845
  N   -5.51574550374829      1.10218499771069     -0.12749713793020
  C   -3.84479764422150     -0.69837806316733     -0.26640494672275
  C   -2.44356355351026     -0.78422463477307     -0.10339051378435
  C   -1.81424871068609     -2.00124547781015     -0.10017257823307
  C   -0.48351968003804     -2.45080938884099      0.11215710947345
  N   -0.38484888332748     -3.81903919251991      0.29294713650169
  N   0.69079270726642     -1.86702143514964      0.06257420049285
  C   1.16902398173405     -0.64657593472956     -0.02704499383620
  C   2.56828168487877     -0.47915367048876     -0.19534864109467
  C   3.51101874316537     -1.49880378935951     -0.33279796297665
  N   4.35051925300988     -2.29794372242906     -0.44404676001112
  C   2.89392623895605      0.89618442738848     -0.11818125711734
  N   4.12132951798401      1.41741359577965     -0.25479653650916
  H   -0.73728507568104      2.25384347441315      0.36928551322619
  H   -3.08551661360146      2.48629864539936      0.28903249914997
  H   -6.23198039209218      0.53539002887490     -0.54460520942716
  H   -5.65142443291015      2.09185252395298     -0.22870051468212
  H   -4.49486457145107     -1.54171177888704     -0.43968278573194
  H   -2.49846021484045     -2.82690538782237     -0.26802870401160
  H   -1.14623925578562     -4.30029259901947      0.73768886915377
  H   0.53560122287955     -4.13430480028009      0.54928412482041
  H   4.92129958022263      0.81198720694181     -0.29700641538602
  H   4.28081029546218      2.38945583762162     -0.06040335189868
