22
Coordinates from ORCA-job ./opt_b97-3c_parallel
  N   -0.07392786055779     -3.43735229089619      1.09207179937687
  C   -0.10163219588186     -2.31316706871833      0.80752562144194
  C   -0.22229606375806     -0.92809476785452      0.49798261452341
  C   -1.52874911015133     -0.50152678836098      0.19101182150998
  C   -2.59310292239924     -1.35131085155020     -0.03946896905073
  C   -3.55286263957752     -0.60347286288644     -0.76667375244534
  N   -3.22981238321946      0.66724746437656     -0.96754865253374
  C   -2.03328359108593      0.84887826271379     -0.32197608748820
  N   -1.64064162219656      2.04403620967016     -0.04651237066730
  C   -0.58250844950437      2.51919339121955      0.60606720509370
  N   0.68220654112307      2.26855264797868      0.46765917575572
  C   1.33727993869223      1.18917585643085      0.07633530842169
  N   2.60589165423775      1.25602521320829     -0.31969103706740
  C   3.02537943878452     -0.03662258480695     -0.28335822317904
  N   4.26128406171802     -0.37491964243060     -0.63288189688595
  N   2.12843194503860     -0.96543985253813      0.13283027140888
  C   1.00054757354512     -0.26693782433894      0.29738969422351
  H   -2.63476025928248     -2.40478423149739      0.17944661803726
  H   -4.48620306067867     -0.99122585752900     -1.15242426629806
  H   -0.81676219195960      3.36716987248167      1.24575343058820
  H   4.90562978194244      0.33009658604919     -0.93986251727526
  H   4.55858694527267     -1.33033066652396     -0.55592090949168
