25
Coordinates from ORCA-job ./opt_b97-3c_parallel
  N   3.85952160731001     -1.91674731790873      0.98221501203019
  C   2.88066329699563     -1.39110895924044      0.63795601553114
  C   1.67979615897037     -0.77790404346286      0.20371056986380
  C   1.68471408780894      0.61717328280690      0.17104233477346
  C   2.82199166710417      1.38187304847570      0.46830891259112
  C   2.55884107259383      2.67386294226551      0.02692317168290
  N   1.32626240455006      2.82929791120125     -0.49131051085860
  C   0.71264463138178      1.62313003512200     -0.39458078928831
  C   -0.64402334912560      1.60204281965021     -0.62995471539054
  C   -1.63061657641599      0.66430336514993     -0.33877111644095
  N   -2.91039702098915      1.04260880785168     -0.27759063948882
  C   -3.54828492708233     -0.06091567256870      0.21940460110600
  N   -4.85474936782314     -0.02585220970565      0.47801577673203
  N   -2.80416976419754     -1.16245353605247      0.42075420761945
  C   -1.56436279206202     -0.78266769538185      0.05475180631306
  N   -0.62131585161749     -1.67359992003206     -0.08034512547178
  C   0.67674196286832     -1.71866477498217     -0.23941616651139
  N   1.13116749698015     -2.87539732698994     -0.78526775802319
  H   3.74846177137486      1.01123655338371      0.87252766956880
  H   3.23426073320153      3.51674755967696      0.07122816442172
  H   -1.03349406504826      2.56393751695268     -0.93796385234589
  H   -5.31347427409985     -0.83414412074885      0.85444672526667
  H   -5.37683102768997      0.81049499976313      0.29503419208821
  H   2.11338416258837     -3.08537723733823     -0.79847104634112
  H   0.48835606802370     -3.64768366458752     -0.81184084252785
