34
Coordinates from ORCA-job ./opt_b97-3c_parallel
  N   3.57207691676652      3.47761845569833      1.00738589511526
  C   3.22019917698022      2.41163748786988      0.70025372528437
  C   2.94040765095839      1.09860223111635      0.32356952166711
  C   3.92774493773430      0.20096125683225     -0.18554949408699
  N   5.22833372813116      0.48525992955710     -0.25770334130969
  C   3.29925871005051     -0.99047920244655     -0.57360451132784
  C   1.93692112060520     -0.92239227457980     -0.27040383436112
  C   1.11838131969294     -2.05804995459569     -0.29812070408310
  C   1.76888756482396     -3.21119824220395     -0.81210915743506
  N   2.30014556825430     -4.15475432963489     -1.23519766036096
  C   -0.16273587911494     -2.34807092539239      0.28441352054124
  N   -0.33040945624556     -3.63767760836535      0.65856195311185
  C   -1.30037890979661     -1.50391467166785      0.43795972452452
  C   -2.41601455957515     -2.17606290915699      1.00168195882737
  N   -3.25483064549137     -2.78039034489224      1.53353984633241
  C   -1.55661278640410     -0.17092643855234      0.06166684249217
  C   -2.85529217397701      0.30821400824547     -0.18982901164968
  C   -4.03607102868881     -0.39195734995226     -0.45227371397994
  N   -5.06798385832915     -0.85207244909058     -0.73165424254446
  C   -2.82542419291004      1.73363667865747     -0.26896957146674
  N   -3.86783790937577      2.50696205536841     -0.54660312713993
  C   -1.50409897326962      2.16622102182277     -0.02676088911414
  C   -1.11870777828788      3.50807922676639     -0.02608490214757
  N   -0.90348193172386      4.65110146056887     -0.04463381750368
  C   -0.67133340682661      1.03217562596528      0.12869693743554
  N   0.60632169181241      1.22370901546773      0.35075282661782
  C   1.67700488505851      0.48529724200340      0.21843797510627
  H   5.87795498500063     -0.14646139689085     -0.68825533308793
  H   5.57323705218105      1.38076275713984      0.04262822888406
  H   3.81482814139432     -1.86408611029754     -0.93506786871734
  H   -1.24195030716301     -3.99858794621302      0.88114076024100
  H   0.40853020782616     -4.30646246660134      0.53912617554729
  H   -3.76809631088999      3.50638250183419     -0.59282197351050
  H   -4.77607622800037      2.10760678652096     -0.71231293080067
