35
Coordinates from ORCA-job ./opt_b97-3c_parallel
  N   -6.04130634777226      1.00365205949617      0.26103235883091
  C   -4.92705218439111      0.67854321921496      0.14628149118308
  C   -3.59573231108899      0.29050198162269      0.01841166215956
  C   -3.13320222526268     -0.93478017708331     -0.50001221692494
  N   -3.95507141342014     -1.87316623448122     -1.01996651351917
  C   -1.71208832356487     -0.99615390267938     -0.33769214368475
  C   -1.07659729628820     -2.22139941754309     -0.45544973527343
  N   -0.01379409362973     -2.74275757622897      0.12570285676341
  C   1.08040225255210     -2.20826723627401      0.61859696875447
  C   1.72537666160059     -1.00042975549535      0.38008336353591
  C   3.14852631677076     -0.94227810960761      0.45352031954166
  N   4.00138632875797     -1.89464083843442      0.90193119289727
  C   3.57912708923187      0.29450970813564     -0.07492734453288
  C   4.89875076675931      0.67512770420178     -0.30640169338493
  N   6.00195588463484      0.99724178384299     -0.50582184276213
  C   2.43052823564939      1.03076009766557     -0.44094295723182
  N   2.52276256940478      2.29829895858657     -0.97602947285172
  C   1.25707845682011      0.29491920491330     -0.11979526484075
  C   -0.00798827821538      0.91037265509220      0.09092818913231
  N   0.00976613682900      2.28269639540783      0.25653913627306
  C   -1.27753370986466      0.29980961495447      0.19385330319020
  C   -2.47229295245753      1.03068713112798      0.46230254231467
  N   -2.60975274030931      2.28062749513464      0.98773018337568
  H   -3.62684753356824     -2.81504150065347     -1.12127603179613
  H   -4.94026771989139     -1.78449509919783     -0.83973584877602
  H   -1.62300029507379     -2.97283981391941     -1.02441622961800
  H   1.63813480031327     -2.91943843805347      1.22749764587433
  H   4.97508693370180     -1.78665646506463      0.67528385520776
  H   3.68776861982593     -2.84599624371289      0.94708339694645
  H   3.45841688821760      2.55948427964645     -1.24898852934996
  H   1.85516748289854      2.50317365245300     -1.70263378739190
  H   0.90481492966628      2.73859997576898      0.20896410259938
  H   -0.74730983752530      2.81495954792481     -0.14065118986784
  H   -1.87790596449124      2.59051573027627      1.60617962717401
  H   -3.54027980551932      2.52571060006276      1.28749046135224
