25
Coordinates from ORCA-job ./opt_b97-3c_parallel
  N   -0.00035137721854     -3.27385581944392     -1.67125232148986
  C   -0.00019692882542     -2.23196364212307     -1.16174364667066
  C   -0.00015022395108     -0.92745147307580     -0.59420774829934
  C   1.26578943782021     -0.44018747078188     -0.21684936618484
  N   2.31284895205652     -1.25408329752303     -0.17360518236983
  C   3.27435123294224     -0.52007428178631      0.46992636761795
  N   4.45568794584006     -1.06644633007958      0.73637802828299
  N   2.97282919697594      0.74350278629948      0.80884716010775
  C   1.72243918331697      0.91067278803369      0.34264715954001
  N   1.20116471208873      2.09568408694408      0.23563640234794
  C   -0.00007518153875      2.47979968305927     -0.18702299222009
  N   -0.00005095051164      3.53634216357643     -1.02514106379525
  N   -1.20137322399576      2.09583140814019      0.23562656137534
  C   -1.72269183282431      0.91084202679946      0.34264076544921
  N   -2.97304670195221      0.74369874171763      0.80900175693812
  C   -3.27468630020610     -0.51984011344804      0.47003891935091
  N   -4.45602973834420     -1.06619676484496      0.73655251251552
  N   -2.31321951944259     -1.25387477643877     -0.17367214975218
  C   -1.26609893693649     -0.44003371538602     -0.21697151974273
  H   5.14918222161845     -0.54428537203980      1.23883607955274
  H   4.64106012809804     -2.01019829829044      0.45046990378248
  H   0.86448841018798      4.02648727813622     -1.17115817717295
  H   -0.86452738489862      4.02661707656114     -1.17108349704769
  H   -4.64150939705173     -2.00998498949495      0.45057559363994
  H   -5.14951988704746     -0.54401745691083      1.23914484614419
