27
Coordinates from ORCA-job ./opt_b97-3c_parallel
  N   3.87292526157493      2.08829183213272     -0.56476077733372
  C   2.97863809287423      1.36890813607861     -0.38701199925719
  C   1.75613727814842      0.66566752210064     -0.14389512984439
  C   1.95393437836852     -0.71218292466313     -0.12480445018401
  N   3.24569284243080     -1.10666978462271     -0.29946126201060
  C   3.28068329861756     -2.43278077203220     -0.11223028105624
  C   2.02973763466782     -2.97251516208529      0.18170609686625
  C   1.11393167908359     -1.91278863731029      0.15794898324920
  C   -0.24395186804469     -2.13433322654067      0.25042751330886
  C   -1.35531370469825     -1.32591593544809      0.09317942267666
  N   -2.56943801966085     -1.91784818287904      0.05714713795652
  C   -3.42977441705084     -0.89577816540994     -0.12894186896924
  N   -4.74435695545859     -1.08510548510865     -0.26347102437110
  N   -2.88139938169599      0.34011671148117     -0.18555026723993
  C   -1.56174909399137      0.13459706033546     -0.05230404079600
  C   -0.75442494436878      1.28557446546881      0.06913452632277
  C   -1.54670006117982      2.46829682310668      0.14955572341066
  N   -2.06710019193588      3.50283899037253      0.24333620208359
  C   0.64342911318941      1.55139619029523      0.10057475814209
  N   0.99034093688106      2.84057378181959      0.33130592462964
  H   4.21741326822206     -2.96484791920695     -0.19505638630039
  H   1.78372558734462     -4.00874450185305      0.34634557982331
  H   -0.52080682991583     -3.17112883731839      0.40165464358172
  H   -5.35501464864625     -0.29243303648302     -0.32967410014539
  H   -5.13024251355097     -2.00256538885753     -0.14398980014960
  H   1.94524197393919      3.13545101701424      0.22840190266916
  H   0.28734679795589      3.55860041141330      0.35311808893736
