30
Coordinates from ORCA-job ./opt_b97-3c_parallel
  N   -0.11240715601460      4.00492064876918     -1.22974076261687
  C   -0.05062277673589      2.89665947856873     -0.89197986867289
  C   -0.07894077107842      1.52268072613845     -0.51242179648598
  C   -1.38428535745833      1.02319558111899     -0.24123648512135
  C   -2.47844898015066      1.85763625408517     -0.17888326289323
  C   -3.55356592472391      1.08885223556646      0.35457154138325
  N   -4.78325026199426      1.53137576521972      0.62416953795306
  N   -3.21108807959620     -0.18199559348590      0.59147301853799
  C   -1.91971624416614     -0.31432444937118      0.20280413886098
  C   -1.43359479607011     -1.60656808499721      0.09660537439041
  C   -2.35445341683386     -2.63591413492793      0.42346589298787
  N   -3.02622043133712     -3.55872921160960      0.64157083899923
  C   -0.16216224000818     -2.09047845762510     -0.40871989787549
  N   -0.19173701776949     -3.28129775934897     -1.04996963027746
  N   1.03064637807354     -1.59363250618301     -0.23825644160586
  C   1.59326183337329     -0.43667330960705      0.00558564412241
  C   2.94055269257591     -0.32817640282496      0.38112438140811
  C   3.83196978660898     -1.35842420075853      0.67288556564376
  N   4.62349909063651     -2.17507031698636      0.92176074797931
  C   3.28176671021211      1.05067061583989      0.21856457599019
  N   4.48099954134009      1.58560299987363      0.43485405671487
  N   2.24717502048896      1.79655950276854     -0.19691805599781
  C   1.17685485330383      0.97588227098945     -0.27424373507725
  H   -2.49168000719646      2.91031826413214     -0.40309965713905
  H   -5.46303538849983      0.89123167582721      0.99515892084596
  H   -5.07026788691492      2.46387249324151      0.39572980120492
  H   0.68752086209956     -3.75050097305789     -1.18100085685227
  H   -1.02967264326921     -3.83534555025546     -1.07062908202737
  H   4.62499162229125      2.56119431010353      0.24405175189837
  H   5.25335519081302      1.02553623089819      0.74646245082176
