31
Coordinates from ORCA-job ./opt_b97-3c_parallel
  N   -5.12554047069670     -2.18003054060533     -0.29082797378231
  C   -4.17236417510360     -1.51756473413050     -0.20288103594484
  C   -3.06581771182726     -0.67133144154723     -0.10795304390406
  C   -1.71379134030593     -1.04988588827467      0.08664269449468
  C   -1.42122167726971     -2.39271011332498      0.28565347172010
  C   -0.27488924997825     -3.15510835058994      0.42552761277339
  C   1.08241504612495     -2.91289203517759      0.33713487319193
  C   1.87289263254360     -1.78794597514390      0.13765628954134
  N   3.19817000739416     -2.02308895156736     -0.01518891791468
  C   3.80232405841262     -0.83465123937216     -0.13277037297756
  N   5.11040306492061     -0.71859684131301     -0.35837405180556
  C   2.87964146343052      0.24846750504899      0.00201095149546
  C   3.29485275221888      1.57013629236531     -0.18302897666336
  N   3.79802123164913      2.59810519298786     -0.39263401810400
  C   1.60763418039274     -0.32989532352303      0.16435960640790
  C   0.44067364717991      0.44085536002213      0.38871828699732
  C   0.71884113168601      1.73168885684977      0.92723350486482
  N   0.94529412792156      2.70627530412884      1.51652060983908
  C   -0.92742134518028      0.20066104034033      0.15701477959058
  C   -1.85214403689189      1.26552174195966     -0.00269569012678
  C   -1.65608828973286      2.64229681557039     -0.16030985819246
  N   -1.68340042968450      3.78936792290868     -0.35316411654595
  C   -3.15490416748548      0.73607581316786     -0.18684123850368
  N   -4.25731524531593      1.44784324418153     -0.41273270098316
  H   -2.31928225667311     -2.99992117058032      0.30648810795293
  H   -0.49724895126812     -4.20485196334017      0.57516429074569
  H   1.69528764490478     -3.80406921658579      0.38588814810833
  H   5.66570434161288     -1.54479692721716     -0.48619776754964
  H   5.53980199278082      0.18310308886146     -0.46411301514546
  H   -4.21565310143743      2.45118413665292     -0.46587617344823
  H   -5.13968034966313      0.99734166284082     -0.57679356152507
