30
Coordinates from ORCA-job ./opt_b97-3c_parallel
  N   4.18599926966869      2.47309098807446     -1.24859073001436
  C   3.39168376056512      1.69018633417251     -0.91540479282609
  C   2.49263939765744      0.69407875704067     -0.53473384993834
  C   1.17387392614852      0.88850178894964     -0.03634087286522
  N   0.74580624140418      2.07679060723541      0.24806207888736
  C   -0.42108097507751      2.56201826224519      0.67276571946872
  N   -0.32383089487906      3.51889266410195      1.62308836451101
  N   -1.62697856539976      2.37266741340418      0.16059487507212
  C   -2.19782904285330      1.25598255637786     -0.23417458919963
  C   -3.44955351359787      1.21027176437721     -0.83876845288108
  C   -3.88278273551964     -0.11772276254395     -0.72979319986432
  N   -5.04512359203432     -0.64722321071476     -1.11432120058771
  N   -2.96491978345555     -0.94004175146938     -0.12968559859437
  C   -1.89289078479872     -0.19502163257043      0.12039577554557
  C   -0.71044374310709     -0.84667095994038      0.53738396973708
  C   -0.93476623120220     -2.16303108076331      1.03025661547120
  N   -1.12054237724682     -3.19729525232653      1.52173111697753
  C   0.62236913363527     -0.47244322981013      0.30294302748980
  C   1.69565461143775     -1.36574677498193      0.16494049351774
  C   1.78138207757643     -2.75375407751874      0.30593011352484
  N   2.05175015366975     -3.88504948532699      0.35945205334533
  C   2.82523544847960     -0.65865707263443     -0.37857528135857
  N   3.98808685634520     -1.22955243106130     -0.67258458834929
  H   -1.12884679400214      4.09927976868744      1.78015880602856
  H   0.58411137213521      3.90978479512845      1.80441181628302
  H   -4.01469187477644      2.06658223758007     -1.16387442620608
  H   -5.19946398847105     -1.62916591788372     -0.96633320689522
  H   -5.71178468365428     -0.12691580998565     -1.65218157296736
  H   4.73638738790694     -0.69427675926324     -1.07621278246156
  H   4.13518686824176     -2.20988578298144     -0.50153137695348
