29
Coordinates from ORCA-job ./opt_b97-3c_parallel
  N   -3.07189730098242     -3.34342324561761     -0.31454664195377
  C   -2.74846926555245     -2.22678369583810     -0.22340152741185
  C   -2.40870093111331     -0.88209372186874     -0.10562164890436
  C   -1.11835033710335     -0.30647157836805     -0.09149379873673
  C   0.02895082339934     -1.07985633651013     -0.17622932060339
  C   1.38354983394616     -0.82486879948420     -0.10309530161478
  C   2.30690475249603     -1.86984763404664     -0.10034990863895
  C   3.60540708148010     -1.35000478955415      0.07463908227599
  N   4.73413478883973     -2.08872459647657      0.17982154946377
  C   3.52873973676955      0.05073838181900      0.16462896676538
  C   2.19764497450300      0.45281723719727      0.04806667193098
  N   1.91970364458295      1.73917299565313      0.01385865695632
  C   0.83383317561137      2.48827605648322     -0.02019073251044
  N   1.14387131169254      3.83953465197620     -0.10766641439105
  C   -0.54976036155954      2.23916234158135      0.11383320614517
  C   -1.36742555970343      1.13446487338268      0.08922316126775
  N   -2.71433684448816      1.36699705728632      0.20170572541550
  C   -3.32873327189789      0.19228758025037      0.08377877225966
  N   -4.67106965617211      0.08006941858833      0.10496047956671
  H   -0.19028641726214     -2.13867717782032     -0.28108158573932
  H   2.05454133709634     -2.91596838667978     -0.18363119364442
  H   4.71787364410570     -3.05003261623002     -0.10854434888153
  H   5.62528837576898     -1.63181357542088      0.11526437871154
  H   4.35380417411006      0.73602840176256      0.27003833141776
  H   2.09775703852676      4.01688127346457     -0.37203854121310
  H   0.46645708763045      4.44751812582385     -0.53353543363229
  H   -1.13541580308431      3.14178897441719      0.24205271246884
  H   -5.19413607294459      0.87143137056118      0.43479097764264
  H   -5.08535628199539     -0.82670087553202      0.22367836448800
