25
Coordinates from ORCA-job ./opt_b97-3c_parallel
  N   0.40893574953121     -3.70967527540922      0.87186701686932
  C   0.29762616555835     -2.59094017506950      0.58784601636906
  C   0.15392510225762     -1.20386675638438      0.25905079371624
  C   1.37682442569316     -0.52983991408189      0.10549374443537
  C   2.60165430394405     -1.20936299404932      0.08841996985134
  C   3.62543211637934     -0.33243410223605     -0.30878422187789
  C   3.08771089629523      0.91721225063746     -0.53280689616987
  C   1.69018669853404      0.88479925643640     -0.24725277380908
  C   1.00441179965163      2.05868476672409     -0.12792457205678
  C   -0.32834816446537      2.39259679824023      0.25248245676837
  N   -0.48380775593595      3.63914125136131      0.80192109702591
  N   -1.45026949856263      1.75356437561529      0.05020109574405
  C   -1.82487629048267      0.51614820086778     -0.18371487880433
  N   -3.12189153176701      0.32628307412629     -0.51854420031098
  C   -3.33787785455641     -1.00385065390300     -0.50058316847218
  C   -2.22227199161890     -1.73877663978652     -0.11948540927084
  C   -1.17221401266138     -0.81691368350258      0.04471437795799
  H   2.72566670209687     -2.26018874734930      0.29005880847550
  H   4.66383573683325     -0.60370906758195     -0.41965621842686
  H   3.62644246368509      1.81137876844938     -0.80420388603210
  H   1.61067607646248      2.93410821015756     -0.34192840626332
  H   0.27297694531302      4.29798071591666      0.77657551295556
  H   -1.41707402494648      4.01427593401023      0.79004489406898
  H   -4.30983394426419     -1.39775779290869     -0.76050836845326
  H   -2.15207127297421     -2.80921828158070     -0.02465776179027
