32
Coordinates from ORCA-job ./opt_b97-3c_parallel
  N   4.91969037671489      2.53187172610307      0.58699955937935
  C   4.12715483643668      1.69278628795652      0.42740477344457
  C   3.19515091430465      0.67457012201767      0.23320206499648
  C   1.78486282692389      0.83765866772991      0.07456889336069
  C   1.23284948018203      2.08533452702317      0.02849788388669
  C   -0.07598541686323      2.58808130907555     -0.20213802512439
  N   -0.12807211260223      3.91252432406585     -0.49896041914772
  N   -1.28135963599914      2.05187459863738     -0.10210852172435
  C   -1.77036202049394      0.84789616955796     -0.00111120041321
  C   -3.16175914188478      0.68267565079054      0.17816650901729
  C   -4.10461019969541      1.70319652195029      0.31081241135432
  N   -4.93773404671273      2.50782346930928      0.42426152764554
  C   -3.48639431998133     -0.69539481421821      0.11639888802647
  N   -4.70437217162895     -1.21225517531251      0.22998968525757
  C   -2.29465965408823     -1.43674170090849     -0.09351352263816
  C   -2.27242809509534     -2.83001722441019     -0.17568715105354
  N   -2.36532041368353     -3.98830883053362     -0.23549956357904
  C   -1.19154178149873     -0.55566481366045     -0.13406806204554
  N   0.01629502786607     -1.04513108336186     -0.22236560813047
  C   1.22686109098892     -0.53968460715710     -0.12639215588495
  C   2.32787761893713     -1.41742647880652     -0.14252968732230
  C   2.30455491861616     -2.80522048908454     -0.29681151976547
  N   2.40478740466514     -3.95768856562698     -0.41892599898148
  C   3.52882454772428     -0.68454374889189      0.08426284847126
  N   4.74816730233556     -1.21535458302040      0.14154595240263
  H   1.96471517320503      2.87718337710334      0.14690902774505
  H   0.69522061814852      4.46224889083879     -0.65595045163617
  H   -1.03157428027549      4.33923459522814     -0.59994515396376
  H   -4.84911345114076     -2.20479264928457      0.15871946098663
  H   -5.50350554662246     -0.62227237026126      0.38343630933723
  H   5.55401712494965     -0.64369913585504      0.32256389958613
  H   4.88238096846750     -2.20421312689383      0.02283687431263
