29
Coordinates from ORCA-job ./opt_b97-3c_parallel
  N   4.98838591619108      1.86137098926822      0.58414423843197
  C   4.16740656793047      1.05283475030613      0.40886977661559
  C   3.20575480900734      0.06872573267352      0.19740998437888
  C   1.80448006888773      0.24725400523177      0.03273959001896
  C   1.23856821970777      1.49421854398179      0.00276569410914
  C   -0.07181950019350      1.99802530814651     -0.20118941340666
  N   -0.12785310107718      3.32767268808126     -0.51072949306856
  N   -1.27203557657124      1.46087851903081     -0.08490385943983
  C   -1.77714245061308      0.25627846850190     -0.01674040003119
  C   -3.15971206561164      0.07412961570808      0.18710725953540
  C   -4.12920993176568      1.05692841666619      0.38028987261785
  N   -4.98565837285357      1.82835257706644      0.54364778305037
  C   -3.40653292694763     -1.31683483934051      0.04465651581420
  N   -4.59250703162307     -1.91919882822829      0.13306825394400
  N   -2.28617416554640     -2.02075410471690     -0.20505668009209
  C   -1.25653956900180     -1.14558866335093     -0.21662909025889
  C   0.01748763329147     -1.66427649517811     -0.32279260138950
  C   1.29564849694985     -1.13544318007111     -0.19324120584596
  N   2.31886226724980     -2.01035635174497     -0.20391686444490
  C   3.45308866808758     -1.31004595613357      0.02814517228465
  N   4.63570097173051     -1.92701213456540      0.07445560504644
  H   1.97136612544663      2.28533742597483      0.12488690223518
  H   0.68975272704090      3.90671594720644     -0.46470467154619
  H   -1.02606936269216      3.77214212514419     -0.43881055506915
  H   -5.43023399180063     -1.39657120121020      0.31188872300103
  H   -4.65257881928649     -2.90989674045300     -0.01775034601292
  H   0.02502838075596     -2.73935099161419     -0.44727516497526
  H   5.48153302433252     -1.42285151519547      0.26537278800299
  H   4.67561704187431     -2.92061249278538     -0.05942187050585
