32
Coordinates from ORCA-job ./opt_b97-3c_parallel
  N   -3.03279248526192     -3.00451485622477     -1.27073214068023
  C   -2.41590891417045     -2.12051895983949     -0.83716817950718
  C   -1.55404567040418     -1.13142671492270     -0.28083910761298
  C   -2.15385947930835      0.12401405636729     -0.19139171985222
  N   -3.45604841155332      0.20038644555259     -0.55413805021416
  C   -3.89198406183096      1.42050972095957     -0.19703987529486
  N   -5.16219936030537      1.78472404522170     -0.44415553032172
  C   -2.87362525812898      2.20449848726090      0.39172909795792
  C   -1.71722571545381      1.43101165179576      0.37096031717577
  C   -0.46839553129633      1.99302871863885      0.61586324007059
  C   0.82866258480642      1.58465465411637      0.39373498054825
  C   1.87192464914791      2.53393246378487      0.35340926571041
  C   3.05386181858067      1.89595270940665      0.00753164473028
  N   4.26691256331220      2.43311648400586     -0.19890237550713
  C   2.78818955358592      0.48391863932071     -0.10359449856672
  C   3.79220953361430     -0.40069598992312     -0.50539246841737
  N   4.70281268946028     -1.01511443006054     -0.89135274951905
  C   1.43107471796615      0.24937698574849      0.15289901699897
  C   0.93181603750183     -1.05085115853735      0.42628600574145
  C   1.91888525957285     -1.94279353645988      0.92153428820444
  N   2.64821701456907     -2.71628018346559      1.39335472540839
  C   -0.33051410622909     -1.67433523765866      0.25038461656053
  N   -0.39458475976455     -2.99493987177815      0.55855276546804
  H   -5.55881251426629      2.58559759621255      0.00990864193838
  H   -5.79450213002234      1.07313635214267     -0.76692171519026
  H   -2.94028753860586      3.23528818430711      0.70077617878747
  H   -0.53397108991225      3.03907224714941      0.89845201303536
  H   1.73832278631614      3.59502784235475      0.48867807304803
  H   5.01486938758009      1.86062162132814     -0.55032106960863
  H   4.38766067215358      3.42719133550856     -0.24294255002727
  H   -1.22381531134622     -3.51775790765407      0.34057726757857
  H   0.44740739539604     -3.52408795846025      0.70459772425550
