28
Coordinates from ORCA-job ./opt_b97-3c_parallel
  N   1.97276474772122      3.34182628960512      1.34309734099701
  C   1.38195234634824      2.42626718185942      0.94447961441324
  C   0.68685738923940      1.27116117710776      0.47325244097795
  C   1.54891094775862      0.18772427815401      0.18442150273541
  C   2.91450083729659      0.30572471516545      0.00111751498027
  C   3.36328337473868     -0.97062452053437     -0.43383814200856
  N   4.60590083166256     -1.28372808298300     -0.82920643153070
  N   2.38843231730221     -1.89633374045679     -0.44552310880826
  C   1.26048856961739     -1.26088858076593     -0.05846297811371
  N   0.21524705271430     -1.97816632277070      0.25010099730101
  C   -1.06735182240056     -1.80900973962475      0.43190581103654
  N   -1.67173303255709     -2.77547629559739      1.17108853762022
  C   -1.92284849163017     -0.82038190998162     -0.17752851201136
  C   -3.18469687557984     -1.33279670149958     -0.56796652414593
  N   -4.21434921931673     -1.78090690478105     -0.87106374298901
  C   -1.71990722327301      0.54636261648120     -0.36288190087059
  C   -2.74612357911497      1.38194795425468     -0.83700816162582
  C   -2.45207316649041      2.70105423870013     -0.49195080240687
  C   -1.22665594528688      2.75892160048381      0.16609710512400
  C   -0.66722223269833      1.46550480241102      0.20721393137149
  H   3.50507024185018      1.20135227867907      0.09858808947513
  H   5.37171710315607     -0.65784274746476     -0.66644444462946
  H   4.81402487682060     -2.24614199334813     -1.02783871643337
  H   -1.15411579245807     -3.62665312556609      1.30882968223605
  H   -2.67430365624801     -2.83828320263565      1.19456193309907
  H   -3.66688309161886      1.03438435751150     -1.27428516763715
  H   -3.07898307728561      3.55284312060115     -0.70850660569276
  H   -0.71594978256775      3.65747398419056      0.46790904254153
