26
Coordinates from ORCA-job ./opt_b97-3c_parallel
  N   -2.05969689896997     -3.30388731598705     -1.29512698289154
  C   -1.51913501720490     -2.35555198436904     -0.90225094981028
  C   -0.78804120362379     -1.21512576956396     -0.46251252118673
  C   0.57243771876460     -1.45240966173074     -0.17120410087172
  C   1.11830239677661     -2.72968535700629     -0.12146817610998
  C   2.36644655208364     -2.61778779100589      0.52076059160908
  N   2.68695684750386     -1.37012752320300      0.84871883480779
  C   1.66317141532141     -0.58311757809617      0.39118345355225
  C   1.92626368175991      0.76284265504870      0.29231582864175
  C   3.19174659256973      1.20871077175224      0.75542697715394
  N   4.19302828100808      1.70168359648253      1.07772933542139
  C   1.12984225526721      1.80007779446428     -0.35780656663807
  N   1.81931723140133      2.69797717737970     -1.09124844279439
  N   -0.14194998293143      2.02229910383897     -0.22822058060135
  C   -1.22292370628334      1.34186736439817      0.07504625907762
  N   -2.33715175092341      1.97803484302798      0.44593380918640
  C   -3.29373430210227      1.01846961901737      0.37834300842024
  N   -4.55770645776738      1.26921430928631      0.70609067058747
  N   -2.90675759987690     -0.21102777048023     -0.04486874037833
  C   -1.58078008742159     -0.09607906283004     -0.18238765508313
  H   0.62629534594519     -3.64035371244258     -0.41665072193288
  H   3.03834622817949     -3.43123736614605      0.75658319878922
  H   1.34295930877007      3.54100260039384     -1.36176013410702
  H   2.82396389906577      2.70143626591573     -1.09180054976283
  H   -4.82079133215489      2.18144274689685      1.02931806380238
  H   -5.24817636785688      0.54647802685671      0.61900162311709
