26
Coordinates from ORCA-job ./opt_b97-3c_parallel
  N   -3.56959000205152      2.70034873847172     -1.16210071327618
  C   -2.86452415616820      1.83819096236057     -0.82476215698822
  C   -2.08172642092666      0.75409579356640     -0.42457244291710
  C   -0.71128804975714      0.78555306585630     -0.07336150219715
  N   -0.06632234591360      1.90802525978942      0.03465968005466
  C   1.20459317229484      2.17747270690331      0.32607373464216
  N   1.39568897600845      3.27291969731287      1.08939330609719
  N   2.31665969304275      1.63797876756749     -0.18075194668717
  C   2.66275794397116      0.39210353737562     -0.31682253166441
  C   3.91200542315761     -0.01766046458987     -0.81444508536724
  C   4.05055117970959     -1.34444155527260     -0.44911852246210
  N   2.96299568659111     -1.88627672988719      0.16584282247071
  C   2.03580292682994     -0.92441441278097      0.22500698365962
  N   0.80213191999382     -1.25647503815387      0.52871957567759
  C   -0.33723297646100     -0.63428246192424      0.34153214126405
  C   -1.54652318710971     -1.35382502735443      0.36425314202562
  C   -1.73077273842905     -2.70163271878513      0.67828395641657
  N   -1.99760791158121     -3.80640179170438      0.92701151700060
  C   -2.59886189632324     -0.52770446263634     -0.13048787525251
  N   -3.86134108326911     -0.91266360535993     -0.27978669557259
  H   2.31623653552427      3.67323760883569      1.12629798729146
  H   0.60509834608199      3.86449438150017      1.27618009343410
  H   4.65091940928535      0.62914613321636     -1.25600081461741
  H   4.92485782373052     -1.96125968256671     -0.60370184154792
  H   -4.55049568781556     -0.28588533593669     -0.65709610734584
  H   -4.14955395181372     -1.84057766940515     -0.02167165753789
