29
Coordinates from ORCA-job ./opt_b97-3c_parallel
  N   2.25138271208706     -3.43120373928876      1.30314727458331
  C   1.83342361482972     -2.42250605782672      0.91010423484912
  C   1.33205980511416     -1.17016379045002      0.44692554543547
  C   2.32802277833316     -0.31191059376009     -0.03963580617358
  C   3.61836643936360     -0.69614124211120     -0.38808022298060
  C   4.16257772744525      0.37942379821239     -1.11565303667247
  N   3.37238452156589      1.45509577170983     -1.17922140102353
  C   2.24721253495384      1.12241141810766     -0.48741699953277
  N   1.44241426434015      2.06136599229040     -0.10296209947748
  C   0.28365685617658      2.15666789344131      0.50947166914725
  N   0.16777631694949      3.21877593771146      1.33489942985808
  C   -0.89534705604488      1.37246533113870      0.24716579886373
  C   -2.08726442032770      2.12801063880038      0.36818117657366
  N   -3.00687770468092      2.81491494142924      0.55460450256322
  C   -1.00823671373856      0.00530401679083     -0.01804131287953
  C   -2.23986271806841     -0.60902097655212     -0.32998804298568
  C   -3.43151886891451     -0.06410788155416     -0.81217889683171
  N   -4.46790322498689      0.22813789765512     -1.25518626778512
  C   -2.13446425857872     -2.00743147075708     -0.06416966384587
  N   -3.12774344333606     -2.88204193110706     -0.24446878535631
  C   -0.83404109257304     -2.28159802516606      0.37723629714188
  C   -0.07119017387211     -1.11145972294606      0.33153482215579
  H   4.06837181515840     -1.66129755948063     -0.22837419164275
  H   5.12845887485605      0.38858055612081     -1.60155049211746
  H   0.88422645832025      3.92219021760244      1.28182886489835
  H   -0.73133391744457      3.49295324578741      1.69135439547899
  H   -4.01794166492635     -2.57875915837040     -0.60018865793909
  H   -3.01394457921011     -3.85412461675036     -0.02753648011616
  H   -0.44687576956963     -3.26383020617040      0.58873375611671
