26
Coordinates from ORCA-job ./opt_b97-3c_parallel
  N   -0.48160551313495     -3.74154649352084      0.09392786153816
  C   -0.21730642267503     -2.61351864213283      0.06407945405223
  C   0.07254107627249     -1.21230257769762      0.02766431110094
  C   1.44050533965869     -0.91481755388835      0.00944832677031
  N   2.29027984399497     -1.95961326143279      0.01952586897334
  C   3.54480439301920     -1.45701553335274     -0.02471720591656
  C   3.56871076829043     -0.07824753708355     -0.06536595663718
  C   2.22378830270543      0.36193080187194     -0.04259895981107
  C   1.95140756825142      1.71013586456294     -0.05379003425945
  C   0.81148665100518      2.53124694530945     -0.02320474957059
  N   1.09315189241269      3.89033777581860     -0.06909596518276
  C   -0.54456868277619      2.21592043704362     -0.01411817822488
  C   -1.31802637724550      1.06722358148871     -0.01380145686712
  N   -2.66080471108782      1.25288732799416     -0.01856034861142
  C   -3.17256437410663      0.00930084360909      0.00230159826859
  N   -4.49066040313530     -0.22724879705159      0.02718424234251
  N   -2.27704972077860     -1.00471916629838      0.02435703588355
  C   -1.07964186881089     -0.40029555726861      0.01442260528705
  H   4.39154723523096     -2.12786861493996     -0.02567103289530
  H   4.43372506622855      0.56434352775331     -0.10203438612059
  H   2.86635042908750      2.29390104668987     -0.09946714795776
  H   2.00032348619151      4.17938247636358      0.25188444218047
  H   0.35942230518212      4.51456985988287      0.21664023652746
  H   -1.19236232099497      3.08581239829092     -0.01759507618929
  H   -5.12592257234613      0.53053866020344     -0.13851451719223
  H   -4.81238600473916     -1.16914131901527     -0.09785800018844
