32
Coordinates from ORCA-job ./opt_b97-3c_parallel
  N   4.08709327262489     -2.86466153742651      0.34055083253697
  C   3.15372557072927     -2.18300821873533      0.21313274269861
  C   1.98429666648529     -1.38971803188123      0.06845465993675
  C   0.80203256370898     -2.16282040628943     -0.03092977769335
  N   0.96728520287163     -3.52663876517792     -0.09022530223036
  C   -0.56023430883183     -1.79434679968516     -0.10996011426150
  C   -1.34344449338178     -0.67197316182902     -0.05118376729668
  C   -2.77314482440202     -0.81774336518464     -0.07732477069405
  C   -3.48260029387468     -2.01527376099716     -0.14487280193473
  N   -4.09395884441745     -3.00607668437791     -0.19956831606934
  C   -3.37065685220814      0.44747990313750      0.00989235230541
  N   -4.67872716398636      0.71864669345482      0.03230470711436
  C   -2.33033729906058      1.41860175271406      0.07951812146882
  C   -2.57786865108523      2.78965124675905      0.15594026115390
  N   -2.85034390782073      3.92022975653723      0.21963360862263
  C   -1.07460236958968      0.77188662859766      0.03751018237693
  C   0.09327729665301      1.51519925875244      0.03117711818604
  C   1.44631067354996      1.24326522725869     -0.01444519072317
  N   2.25637535246244      2.32894036022209     -0.04375057032986
  C   3.52104261253272      1.87017382725561     -0.05873626629072
  N   4.55139738062702      2.72758715639739     -0.08349260655670
  C   3.58480167453604      0.46033420237442     -0.02596583245893
  C   2.27842269613128     -0.00273379839608     -0.00609778556373
  H   1.86665002088857     -3.93076209384217      0.10414577843711
  H   0.18166946751425     -4.11028687439869      0.12956331293914
  H   -1.18036928151919     -2.67849208739069     -0.21600526614109
  H   -5.00621455686675      1.66628593052474      0.08240575692273
  H   -5.35864793681372     -0.01616693969756     -0.03997703599234
  H   -0.07399033458715      2.58597985128804      0.05600992531961
  H   4.35927314414411      3.70649725963291     -0.19881936061398
  H   5.49254949807688      2.40775322621057     -0.20930644870120
  H   4.47923191450891     -0.13868317220780     -0.02345366736728
