33
Coordinates from ORCA-job ./opt_b97-3c_parallel
  N   -3.77308315637484     -3.51050623275997     -1.12188823959362
  C   -3.38243850945717     -2.46377788650386     -0.79160240537291
  C   -2.99625414323004     -1.18699861506095     -0.38766047268686
  C   -3.90854574798450     -0.22663251335817      0.15573516914182
  N   -5.23074180244928     -0.41420498397935      0.23485278022928
  C   -3.18426411030539      0.89767473591436      0.54945066295592
  C   -1.82996740230677      0.72126230340756      0.22327760753431
  C   -0.92274612520849      1.78710096106575      0.29060419300590
  C   -1.47653693430443      2.96689873488881      0.85615731170222
  N   -1.92507832872678      3.93196936478481      1.32449088850844
  C   0.37842864445442      2.00910724904800     -0.28782005340024
  N   0.60125486863425      3.28684620476639     -0.68635557350026
  C   1.47003821891819      1.11559449597099     -0.41036518003960
  C   2.63307724303354      1.72189909340153     -0.94989334791748
  N   3.52611946956020      2.27323458038176     -1.45057852877689
  C   1.64885378005313     -0.23550230685621     -0.02490253468395
  C   2.89906026387139     -0.79917675746570      0.25604333425940
  C   4.12340017938614     -0.20505086583293      0.56912920762771
  N   5.18010403907114      0.17023175272925      0.88067768242143
  C   2.70270808581882     -2.21963142117608      0.26837319859364
  N   3.63824383907788     -3.12775849948958      0.54146712686591
  N   1.44055537179635     -2.55686114203899     -0.01710050252810
  C   0.74604240834050     -1.39893097553415     -0.15562049449029
  C   -0.60551690660689     -1.51569929690932     -0.43516987561118
  C   -1.68822784871787     -0.66960144589785     -0.30151271567433
  H   -5.64314924804580     -1.28262077676585     -0.05687699069167
  H   -5.82129273980129      0.24791916853771      0.70199448954605
  H   -3.61718433252361      1.80496557238989      0.93395260693127
  H   -0.10614511193162      3.98756538525352     -0.56171972870787
  H   1.53669119119676      3.61521998800573     -0.85440490902633
  H   4.57639220823850     -2.85371676746436      0.77163182167612
  H   3.39481527657374     -4.10171534311995      0.54807668940685
  H   -0.87153008943055     -2.54308767824792     -0.65521269700455
