27
Coordinates from ORCA-job ./opt_b97-3c_parallel
  N   0.05626707531627     -3.56686466391730     -1.08635973551273
  C   0.11480464579009     -2.45118001908534     -0.77132066399975
  C   0.06686823799282     -1.07380797655090     -0.40653390971557
  C   -1.24236709761197     -0.58198442231783     -0.21402141920064
  C   -2.35730541952314     -1.39069464312389     -0.17819384802192
  C   -3.43263087420528     -0.57270493648117      0.25847610830148
  N   -4.68107140162817     -0.98156810745443      0.50767946264191
  N   -3.09313387752359      0.71454625130411      0.43197318052810
  C   -1.77910002422286      0.80808090960461      0.12308899599640
  N   -1.27299100710291      1.99886512265737      0.02546144607850
  C   -0.08565766727010      2.55615994186327     -0.15376184829857
  N   -0.18227423890003      3.83986475741196     -0.60599513856469
  C   1.21492547677250      2.11186347218478      0.14746837258835
  C   1.79469426305691      0.86520518484050      0.20588843464209
  N   3.12162085326299      0.78360695855149      0.45852927568781
  C   3.42042840322384     -0.50968714771471      0.23565639111551
  N   4.66632042485750     -0.98392791524402      0.35648311072166
  N   2.40031927419857     -1.31647452227104     -0.14187731754570
  C   1.32543989383940     -0.51266697375496     -0.14826826477396
  H   -2.38841631151679     -2.45149787676719     -0.36020346934456
  H   -5.36955375126445     -0.30117310832158      0.77523572909863
  H   -4.98129384972668     -1.91162703616284      0.28600560673854
  H   0.62966890170653      4.42510525193437     -0.66796945509182
  H   -1.08533789421840      4.27733183935373     -0.56180852464268
  H   1.93819512130233      2.90361141596457      0.30213835875266
  H   5.36858283975527     -0.40772739755327      0.78096854657754
  H   4.81264085544022     -1.97467705314760      0.30104980684261
