30
Coordinates from ORCA-job ./opt_b97-3c_parallel
  N   -5.00661898437454     -2.67411922514699      0.02829305796360
  C   -4.16866421783781     -1.86627118688412      0.01906833479505
  C   -3.20544909877538     -0.85508871518892      0.00775314401607
  C   -1.80060182134613     -1.01420439016855      0.00847029663664
  C   -1.22516864537572     -2.27082763549399      0.02039708625839
  C   0.07680648536795     -2.77387939746655      0.02451495404835
  N   1.29825893546420     -2.27545372052576      0.02015365861976
  C   1.78005888065503     -1.05321177269284      0.00858721597296
  C   3.18057717003135     -0.88731001975956      0.00808940960964
  C   4.14320117950922     -1.90049429560423      0.01916181468515
  N   5.01570817015198     -2.66924642617352      0.02769642065927
  C   3.50682241510974      0.49427665870245     -0.00604989156184
  N   4.73355556582845      1.00365587440678     -0.01035078315520
  C   2.29908613392915      1.23451683242642     -0.01477580604530
  C   2.26202597678024      2.63135818776829     -0.02940466334588
  N   2.34069618801453      3.79151993402088     -0.04162601178547
  C   1.19579596481751      0.35083876631347     -0.00620814221748
  N   -0.00971226243054      0.86060925186708     -0.01171114304389
  C   -1.22581601430992      0.36368481241947     -0.00622698080914
  C   -2.31830862774412      1.26033630760073     -0.01517379574153
  C   -2.27032381289207      2.65684062214483     -0.02998968934229
  N   -2.34556196860155      3.81709059600481     -0.04238685510862
  C   -3.53014593467416      0.52679102360529     -0.00666514759413
  N   -4.75550840006017      1.04361219443356     -0.01136347997773
  H   -1.95708056719565     -3.07118925413974      0.02844010544107
  H   0.09425905902747     -3.86040582414956      0.03430280065688
  H   4.87746641204718      1.99873632304995     -0.02082734229124
  H   5.54086276264734      0.40459122950326     -0.00346575251973
  H   -5.56781793861008      0.45211678916036     -0.00442680377889
  H   -4.89217690006160      2.03946883796651     -0.02176679074741
