32
Coordinates from ORCA-job ./opt_b97-3c_parallel
  N   -3.37447050683084     -3.64289204191653     -0.22954891599347
  C   -2.97982971917230     -2.54945351806525     -0.15480595561585
  C   -2.61601302925290     -1.20786327740293     -0.05539306879165
  C   -3.51974982624858     -0.15654335702201      0.22086158219378
  N   -4.83554128763883     -0.30565177243805      0.41463910111778
  C   -2.80051991998180      1.05444321618182      0.26754337348873
  C   -1.44706509701833      0.81656955881045      0.05284044832733
  C   -0.54172698100977      1.88226968583435     -0.16763321261750
  C   -1.21057066460014      3.12122619944739     -0.35767574780977
  N   -1.73250659629341      4.14825356451898     -0.51664209057883
  C   0.87139256738114      2.01357568108476     -0.18704073125884
  N   1.34556296449188      3.24840365812572     -0.52911251613478
  C   1.89141426076683      1.06661781158065      0.17060583124899
  C   3.11800928191915      1.69551290225313      0.52234131656417
  N   4.11601686227654      2.21660752739354      0.81286933590670
  C   1.98841402040111     -0.32969752722799      0.14994523549056
  C   3.20815860713502     -0.98105811756581      0.35664204697381
  C   3.06733347178170     -2.34653485738054      0.05745477606262
  N   4.04152254195002     -3.26826796483336      0.12855183595793
  C   1.72630721961586     -2.60288441922618     -0.30935581791071
  C   0.99830359940461     -1.42398695662882     -0.22629202696715
  N   -0.31315759196113     -1.49489969963305     -0.33169236432747
  C   -1.30166042862880     -0.67170439958039     -0.12886978948921
  H   -5.26614578108877     -1.20841922681967      0.32106545129030
  H   -5.43085127355562      0.48462372779074      0.57554820030536
  H   -3.25076102155177      2.02325970333563      0.40581446486775
  H   0.72769879697717      4.04096181154394     -0.51993918703896
  H   2.32053680422644      3.45549191146366     -0.40761151908548
  H   4.13837023631308     -0.50232867324848      0.61269885324907
  H   3.89194632357269     -4.20239000695756     -0.20344780135861
  H   4.98266226944886     -3.00731291499129      0.35706299167072
  H   1.28204583087052     -3.56144943202678     -0.51976330493709
