20
Coordinates from ORCA-job ./opt_b97-3c_parallel
  N   -0.01659542927401      3.49794415206569      0.93437677052153
  C   0.05261032380094      2.37174150246661      0.66807432703918
  C   0.03150662328976      0.97163742262087      0.39389982915106
  C   -1.25494863165251      0.42548543600122      0.19519352971806
  C   -2.39341253720081      1.18168717720805      0.01230571232654
  C   -3.35663010558326      0.32636989244860     -0.59107755334372
  N   -2.94635530555313     -0.91852106047409     -0.76086761139757
  C   -1.68051054997238     -0.97532398943260     -0.22239205853298
  N   -1.17542526026484     -2.12889631112398      0.04394504707751
  C   -0.01697381487181     -2.51895770040241      0.57219357153022
  N   1.19517486089226     -2.15444707548983      0.28254862523270
  C   1.71315045670534     -1.01403759714123     -0.12842392678292
  N   2.95839375461292     -0.95812810481502     -0.62229955211075
  C   3.26744536404782      0.35416517917035     -0.58639941365043
  N   2.34487172178564      1.19380153925254     -0.08965047064493
  C   1.27909428444091      0.40028723265460      0.14759534082765
  H   -2.50253191433913      2.23691423924582      0.19870381056003
  H   -4.34863910866691      0.62120856817710     -0.90440898985687
  H   -0.10127383195594     -3.39289186208738      1.21257228863105
  H   4.22470628665779      0.71520939155513     -0.93207029389605
