29
Coordinates from ORCA-job ./opt_b97-3c_parallel
  N   -4.17166224468277     -2.74004019925712      0.03594645960882
  C   -3.56896692983885     -1.74311853237357      0.02884278874700
  C   -2.91406700499073     -0.51341073888988      0.01966997904534
  C   -1.53284262698014     -0.25422037970471      0.00620500741584
  C   -0.59713774581796     -1.27241465822164     -0.00228607591050
  C   0.78363977031270     -1.32314271942865     -0.00831334242462
  N   1.36253243318404     -2.54568647273667     -0.01046213077971
  C   2.68254356472759     -2.29040026351250     -0.00160395099975
  N   3.59806735969983     -3.26098356733452      0.00546925870093
  N   3.04271711225918     -0.98308970508692      0.00630135190907
  C   1.88408263395367     -0.31143598172139     -0.00053319217952
  C   1.96786286472353      1.09479480047827      0.00853366859136
  C   3.31383208004193      1.55634685611421      0.04468490918177
  N   4.35333317121372      2.07509297716076      0.07905950794202
  C   1.00719575465821      2.14388130097161     -0.02639924120292
  N   1.51342969954379      3.40953855582552     -0.07983466305669
  C   -0.40341221597903      2.12691161899957     -0.02834714802888
  C   -1.43936155921079      1.22499023725649     -0.00553248791912
  N   -2.69448845619844      1.77015605730527     -0.00179523540446
  C   -3.56393040044461      0.76104041652959      0.01461848129509
  N   -4.88580758396021      0.95644553968219      0.03517440149411
  H   -1.02558532544860     -2.26830023599821     -0.00038446880556
  H   4.57244910323543     -3.02692783783357     -0.02414236788250
  H   3.31005694360454     -4.22007574878152     -0.03948229743461
  H   0.90167071917812      4.19279096038972      0.04461352057278
  H   2.49902479088980      3.57679231778050      0.02239559313833
  H   -0.82061138259853      3.12722088006987     -0.05340351793496
  H   -5.52494077539002      0.18452412190578     -0.00804501919958
  H   -5.24527174628551      1.89156197601157     -0.02051642607909
