30
Coordinates from ORCA-job ./opt_b97-3c_parallel
  N   -2.34172197259458     -3.33787716177581     -1.37475011367601
  C   -1.91184677004110     -2.34727396166786     -0.95088387553265
  C   -1.39070087152848     -1.11310558274918     -0.45482861643447
  C   -2.37750333222108     -0.20820582723584     -0.04792353646603
  C   -3.70837855790372     -0.56508685588875      0.16656456706907
  C   -4.33429315290215      0.43076282720493      0.94860262440890
  C   -3.45454149957245      1.46339889649372      1.19923949988955
  C   -2.23174392167311      1.17861076303433      0.52974267278958
  N   -1.37257864821839      2.12043642886816      0.28695398914815
  C   -0.21493120811052      2.21110517163370     -0.35250682135327
  N   -0.06782316869680      3.36686121021178     -1.04835496891387
  C   0.91097185015351      1.34142658960359     -0.22953768564528
  C   2.14069528446266      2.00253630274649     -0.47264558800464
  N   3.08834870230113      2.61279323034920     -0.75959647021531
  C   0.97195268909427     -0.03296763934402      0.06129378315515
  C   2.18124054845453     -0.67999447717010      0.38978018351904
  C   3.38545492481430     -0.15435071590375      0.86256865337101
  N   4.42416059530282      0.13377207132558      1.30292781443588
  C   2.02157070948701     -2.08719556741975      0.19739964217707
  N   2.97825401533641     -2.99226185550240      0.44299607635093
  C   0.71620209559667     -2.32544197994947     -0.23712771798403
  C   0.00490442947182     -1.11623358312795     -0.26081699352190
  H   -4.15399606398487     -1.50247187547450     -0.12147194250024
  H   -5.35863383531458      0.38510756216988      1.28626674761891
  H   -3.66418113504319      2.40395712909940      1.67979132509431
  H   -0.73674644423273      4.09183269564610     -0.85660095390379
  H   0.84402207462877      3.65460434731442     -1.36012719544422
  H   3.89294564704423     -2.69921304712183      0.73858216606435
  H   2.84154602266615     -3.96273552183484      0.23372754181653
  H   0.28956241682782     -3.29744734713700     -0.41732762231537
