30
Coordinates from ORCA-job ./opt_b97-3c_parallel
  N   -1.25593520024689     -3.52445058775662     -1.52336645472015
  C   -0.93538665533821     -2.49475346033794     -1.09248457544849
  C   -0.56371177503119     -1.21973654761485     -0.57671863046227
  C   -1.67507317960061     -0.42299847826241     -0.22335718090166
  C   -2.96132675324089     -0.90130934722736     -0.06287720384159
  C   -3.71202727679010      0.17095538685732      0.48918060400089
  N   -4.98492322006698      0.11224053994541      0.90856636306214
  N   -3.01255702905343      1.31342872119307      0.60019640734687
  C   -1.77055845809915      1.03380909848006      0.14533037555003
  N   -0.96026565475700      2.01863194228062     -0.10649063108126
  C   0.31070789422448      2.21003067134439     -0.36432180887862
  N   0.56775900383263      3.36043291308907     -1.04454508598196
  C   1.44122787086049      1.45841390425290      0.09754218190349
  C   2.57513870129708      2.25544301304004      0.38151602205848
  N   3.50132544832120      2.92429046680720      0.60456430337367
  C   1.62335159526125      0.07243787635299      0.23122927581682
  C   2.84348972005350     -0.46257670361047      0.62926983454917
  C   2.88158669750166     -1.82766224748116      0.27496060092685
  N   3.93291290651860     -2.64882775607600      0.45910619543837
  C   1.66106625103350     -2.18544569418239     -0.32571125650715
  C   0.80600167347918     -1.08197167593417     -0.30568134040938
  H   -3.30148360099784     -1.90972825967749     -0.22886933527814
  H   -5.42910720329614      0.96724943823966      1.19285889019534
  H   -5.56921872874442     -0.66512429284906      0.66527439399493
  H   1.51131449390029      3.69705756193234     -1.12273663640112
  H   -0.16697816959662      4.04654416657386     -1.05418029434282
  H   3.67806528116795      0.10518121918654      1.00565815567258
  H   4.69152296718481     -2.37141093558211      1.05381849206865
  H   3.84671243031854     -3.62979332232763      0.26803097042699
  H   1.37966894289023     -3.18399401813964     -0.61508879584668
