32
Coordinates from ORCA-job ./opt_b97-3c_parallel
  N   0.89668321469978     -4.10289026073582      1.11359576308323
  C   0.76106478117996     -3.00547917867908      0.76571154457582
  C   0.57682264390154     -1.63852470956109      0.39876232193193
  C   1.76927066871911     -0.92484242440699      0.19137725236711
  N   2.90261522262704     -1.62738213486563      0.23102190529688
  C   3.87288572556066     -0.84121052878912     -0.31333048960500
  N   5.11698225418297     -1.31490315497223     -0.39939560431107
  C   3.38984934651703      0.41442955415240     -0.70761551848010
  C   2.04817946200628      0.46048875938057     -0.33110617406640
  C   1.32234431102053      1.66343788535595     -0.31426093628926
  C   2.03486664269753      2.76350765705972     -0.85709294025724
  N   2.61461889745535      3.66754336431972     -1.30333024008187
  C   0.10999899090974      2.04841569673799      0.34541942055187
  N   0.07548822171456      3.33004448245234      0.78172258942014
  C   -1.07945822352614      1.29437223313216      0.51314196863667
  C   -2.12059032881272      2.01386047678456      1.15148238430068
  N   -2.90451743877277      2.64386494624098      1.73545882207837
  C   -1.45707540759110      0.01236477437988      0.05123136586644
  C   -2.78615173243132     -0.32834197578720     -0.23075111170997
  C   -3.89683371316825      0.47789652157437     -0.48719693217898
  N   -4.87620974310849      1.04675046386580     -0.75462225364160
  C   -2.81932520991964     -1.75518112661431     -0.33499744818659
  N   -3.87845861120608     -2.49077918948595     -0.65375694594063
  N   -1.62014949997024     -2.30529708937675     -0.09765225529702
  C   -0.75131486963657     -1.29574960702423      0.09653227769024
  H   5.84443051199877     -0.80939529174763     -0.86832675464515
  H   5.30320960203601     -2.24884667074005     -0.07908608856932
  H   3.97028454853098      1.23253607297989     -1.09669438189820
  H   0.86296912576879      3.93622304506021      0.64059643467049
  H   -0.79638120044885      3.76701298827637      1.02633754564791
  H   -3.78565028283642     -3.48947479941528     -0.71192553312957
  H   -4.77054889639817     -2.06696167015137     -0.83689272903033
