31
Coordinates from ORCA-job ./opt_b97-3c_parallel
  N   -4.11264158817278      2.80800302454626      0.00418624712858
  C   -3.21676740998062      2.06790424379477      0.00121640936259
  C   -2.00986422102359      1.31347879516283     -0.00210807593239
  C   -0.83511318029379      2.11638987896234     -0.00814235933391
  N   -1.03709845288729      3.46240345013034     -0.01755656951820
  C   0.53588979765439      1.77385959965114     -0.00732074055322
  C   1.34299307546255      0.66441110502458     -0.00264069694160
  C   2.76429101401452      0.84490536265381     -0.00141055331893
  C   3.44488000423715      2.06125322426178     -0.00304370732716
  N   4.03198891292208      3.06791060511086     -0.00431420198952
  C   3.39671552361312     -0.41079216691197      0.00245239513836
  N   4.71131671795532     -0.64068655513542      0.00489884001080
  C   2.38651805312290     -1.41007605173390      0.00353111642763
  C   2.66850600534322     -2.77637463414125      0.00685860239635
  N   2.96654297345741     -3.90222331211285      0.00973778021469
  C   1.11189671960052     -0.79484693028854      0.00055081618940
  C   -0.03370202164943     -1.56289776191007     -0.00003391208349
  C   -1.39442595037710     -1.30120511962618     -0.00081448680371
  N   -2.22604449141216     -2.36412100206070      0.00048917771359
  C   -3.46154311145779     -1.82344427352064      0.00124029297719
  N   -4.56386995344127     -2.57311688080125      0.00263413198317
  N   -3.52346683587563     -0.47161190112400      0.00050687514365
  C   -2.24292246743810     -0.07354539625453     -0.00125796367558
  H   -0.25991404576845      4.09386594090611     -0.00387013289395
  H   -1.96050797310435      3.85728338492503     -0.00606496832262
  H   1.14306228632341      2.67327185066000     -0.01178530939484
  H   5.06903513067529     -1.57892065253333      0.00728676585653
  H   5.36824358659281      0.11844373986947      0.00355252301918
  H   0.15244122049881     -2.63083138319250      0.00144706248636
  H   -4.48974115339803     -3.57288682497871      0.00247218087081
  H   -5.46603949039299     -2.13553761373344      0.00283500087030
