26
Coordinates from ORCA-job ./opt_b97-3c_parallel
  N   0.09140854049041      3.44099848534663     -0.03548731866826
  C   0.14282143166365      2.28198616205110     -0.03444813286519
  C   0.07034888727802      0.85316973311218     -0.02868176213939
  C   -1.26180396453943      0.35953644440578     -0.02243618258648
  C   -2.36328062705923      1.19092405666244     -0.02536265873589
  C   -3.50812412930665      0.34976779258954     -0.01879231625388
  N   -4.79010002998682      0.75094262702687     -0.04526181273388
  N   -3.19205805062309     -0.95009854303011     -0.01404423475064
  C   -1.83082415612027     -1.02081452808814     -0.01622018197222
  C   -1.28169496686357     -2.28252877041987     -0.00843041466720
  C   0.00573027698602     -2.84490933168867     -0.00075192690786
  N   1.24100411818134     -2.41976833549322     -0.00065652448429
  C   1.79144576640159     -1.20372857093250     -0.01312347065643
  C   3.17233312758422     -1.10252420763197     -0.01286566308725
  C   3.49074661637429      0.27391891798654     -0.02872081237115
  N   4.71322393285209      0.82797137686433     -0.06125100946687
  N   2.39678155215735      1.05299615174176     -0.03943193438750
  C   1.31770408054070      0.23623478081309     -0.03115800377135
  H   -2.35539613052256      2.26737595760224     -0.03533041344244
  H   -5.02871940814931      1.71037290096415      0.11918930084462
  H   -5.50624042743855      0.05897284980884      0.08568017744634
  H   -2.05778004055999     -3.03852419273732     -0.00613816241994
  H   -0.03986295190798     -3.93282205872647      0.00778891837599
  H   3.84376579976450     -1.94461359227159     -0.00648967977467
  H   5.53244364783894      0.27691057346929      0.10981526698472
  H   4.78241908616151      1.82499864477721      0.04390997588962
