26
Coordinates from ORCA-job ./opt_b97-3c_parallel
  N   -0.27064321847932      3.21350150189440     -0.73893716915007
  C   -0.01057499157892      2.11991398021624     -0.45422122578323
  C   0.37783993834180      0.76872024213855     -0.18306922449992
  C   1.76005380931512      0.61097297055688     -0.06920814904673
  C   2.61515388741342      1.72549056739486      0.00525628845923
  C   3.90371837151903      1.31642956641567      0.35406613791058
  C   3.93380035870777     -0.06647381313597      0.47127879941803
  C   2.65952040760347     -0.59735786034522      0.18448013135586
  N   2.55353281272731     -1.89813312584364      0.06197042490584
  C   1.55725623482889     -2.70979906800055     -0.25278111279084
  C   0.17737995506691     -2.60324546441390     -0.31828882228618
  C   -0.76957426827970     -1.59892287306314     -0.13654898772568
  N   -2.06081726456259     -2.01773174108868     -0.08386700456369
  C   -2.82678807866552     -0.93384399712823      0.07558396052732
  N   -4.15605885653201     -1.00698023968926      0.19877307965368
  C   -2.05208822347100      0.26579874843149      0.08237488364276
  C   -2.65987300401081      1.50270460586852      0.30980567404437
  N   -3.32358552638647      2.43138817008820      0.53829099395597
  C   -0.70446738954455     -0.13260296764673     -0.05478794965791
  H   2.30594809222770      2.74824930096449     -0.12757087363714
  H   4.74138836331735      1.98084571832113      0.49991424336024
  H   4.78829708873611     -0.69041598080927      0.67284157170482
  H   1.90587676804038     -3.72602045045324     -0.41563070202482
  H   -0.30839477109763     -3.55936323067066     -0.47087220582327
  H   -4.69840594361228     -0.18711701361632      0.40274002445726
  H   -4.59090913292452     -1.90818993948452      0.27272239139428
