27
Coordinates from ORCA-job ./opt_b97-3c_parallel
  N   4.11075438556039     -2.75101697554169     -0.11965851468167
  C   3.27749663134717     -1.93935282679390     -0.09257570377760
  C   2.32683498261684     -0.91545472814312     -0.05592977912501
  C   0.91592315587771     -1.05566189606800     -0.07487351400092
  C   0.39833221394555     -2.34592931228817     -0.13115201995346
  C   -0.84358609764257     -2.95295159518396     -0.05128972452780
  C   -2.13913222690058     -2.49727570410328      0.10075144217198
  C   -2.71223707186610     -1.23660336789976      0.13780089556560
  N   -4.06350642289097     -1.17488976776008      0.25954916024685
  C   -4.35003071262308      0.12945690943024      0.16351945815770
  N   -3.30863005980067      0.95437957184906     -0.02479484739982
  C   -2.22375467367176      0.14605858441522     -0.03178432178887
  C   -0.96846032284953      0.77726049680358     -0.15596968922955
  C   -1.10804966401324      2.17123823844787     -0.44507619928826
  N   -1.18794110106350      3.28231901292352     -0.76730648668729
  C   0.35523473531228      0.31488858436244     -0.04121575626832
  C   1.46318685947983      1.19703910364876      0.04486953494718
  C   1.55721233447457      2.58282158136116      0.22701216894842
  N   1.87363738770657      3.68527197450209      0.42121633004169
  C   2.66956891920662      0.44919829015065      0.04395225579179
  N   3.89728695816301      0.95575327699524      0.13422086377782
  H   1.19289229106967     -3.07985018654215     -0.20941587724322
  H   -0.77761484866347     -4.03332520673666     -0.08799263898648
  H   -2.88724208273058     -3.27493778989355      0.19220773556538
  H   -5.36117210451373      0.50120732305810      0.23234789524864
  H   4.70427286974423      0.35843153441580      0.15477157761330
  H   4.03425993782523      1.94805311749057      0.22578954298197
