29
Coordinates from ORCA-job ./opt_b97-3c_parallel
  N   -4.05402205079436      2.43889409769676      0.22630750836688
  C   -3.13163211813616      1.73972402645759      0.12492224171020
  C   -1.96055104070936      0.93603361964968      0.01363878604841
  C   -0.77691181785843      1.71269801312007     -0.07792957213315
  N   -0.93545616842020      3.08026187674724     -0.18935443524614
  C   0.57582688988046      1.32189642373344     -0.09892976298322
  C   1.31294857170024      0.16913388292336     -0.04517399281472
  C   2.74425927188496      0.24849247310623     -0.03362904700913
  C   3.50905225823059      1.41350548318281     -0.02912553376968
  N   4.17160806777586      2.37266137108148     -0.01874164326421
  C   3.28791086831781     -1.05373350173225      0.00831648699218
  N   4.60375229920474     -1.35086501239246     -0.00334887180076
  C   2.21983964627132     -1.96784014679986      0.01189542040317
  C   1.00254079467634     -1.28195675506037     -0.01619878449402
  N   -0.11517101424277     -1.99466327052594     -0.03321164364047
  C   -1.38586564918072     -1.70904078821094     -0.04236948522587
  C   -2.30052568305841     -2.79761930343808     -0.05069551399718
  C   -3.58876567228770     -2.31459739528691     -0.02035622404132
  C   -3.55975023636351     -0.90688707131687      0.01166825236401
  C   -2.24264015296434     -0.44536809708335     -0.00877352502997
  H   -1.83241770077522      3.48624917593753      0.01391203497805
  H   -0.15478339327257      3.65692628638507      0.06652820894438
  H   1.22343085301308      2.19085335367259     -0.16540869270063
  H   4.90204179026810     -2.27904631258174      0.23195010518261
  H   5.27288071189826     -0.61716970561814      0.15224071079071
  H   2.29400626577926     -3.04277685928961      0.02425300942904
  H   -1.97568758063727     -3.82394275309620     -0.07171402682412
  H   -4.49013531670246     -2.90828285879872     -0.02114362638939
  H   -4.43385395529762     -0.27784019716243      0.03418603495421
