24
Coordinates from ORCA-job ./opt_b97-3c_parallel
  N   3.16465487800716      2.47896770461023     -1.14442662852976
  C   2.29796369110007      1.80554607202202     -0.77080569469794
  C   1.30774324137924      0.86738383073429     -0.34791476653661
  C   1.79693455857791     -0.42407686417192     -0.09669869145542
  C   3.13749973447179     -0.74935422316892      0.01669167758669
  C   3.18824075146266     -2.04310236175870      0.58761095186596
  N   1.99761007245905     -2.59811472869509      0.78018651737943
  C   1.07919450649549     -1.68318182883287      0.32994298756743
  N   -0.13449166831651     -2.08322612095240      0.16495417537476
  C   -1.31706080877083     -1.62074642652995     -0.19362157605566
  N   -2.09539832784756     -2.51581169616184     -0.83243297145505
  C   -1.89429714541180     -0.36392160044655      0.17686356903993
  C   -3.29959431953224     -0.39402284419793      0.36272053870881
  N   -4.44823978905290     -0.53825722723704      0.46189369630663
  C   -1.28088574114490      0.88402282363757      0.30240532721807
  N   -2.06693616036304      1.94131718268778      0.59807617711747
  C   -1.29281032836833      3.01381681526947      0.36540429925843
  N   -0.04785883276110      2.77333480692733     -0.06502048708279
  C   0.05070619103615      1.42258788573479     -0.09011719828701
  H   3.97437796633195     -0.11069605736717     -0.20932750067329
  H   4.08776444213427     -2.57789599021361      0.85903746171572
  H   -3.06469119223542     -2.31906966198857     -1.01258131068560
  H   -1.79546033978021     -3.47529060505676     -0.84185927029834
  H   -1.65501985887121      4.01874129635555      0.52167855241887
