25
Coordinates from ORCA-job ./opt_b97-3c_parallel
  N   0.07213766552164     -3.47984390223924      0.03899559052016
  C   0.01032586979189     -2.32211486199172      0.03247775437429
  C   -0.18094779891002     -0.90063243613071      0.02173859491838
  C   -1.52897556670030     -0.50445140696952      0.00464396013514
  C   -2.56386453541547     -1.43804574099698     -0.00671727610168
  C   -3.81394812972452     -0.78634907784346     -0.03005271549247
  C   -3.61579025622973      0.57426858297546     -0.03321829197749
  C   -2.21954410666055      0.85639698986994     -0.01121588506478
  N   -1.86686284288690      2.11181882922912     -0.00501499859255
  C   -0.70848341877165      2.76875528314466      0.01175084011185
  C   0.62720316255151      2.42658908247400      0.01608890158148
  C   1.36926387716373      1.24102704636177      0.01604011738550
  C   2.76301354007501      1.27021938675448      0.01771241743849
  C   3.20028453673316     -0.06962138629089      0.02799948046293
  N   4.47093974545274     -0.52828237108065      0.07473515546674
  N   2.16669327979422     -0.92911458266384      0.03537875648335
  C   1.02921278597437     -0.19319670613459      0.02869664199890
  H   -2.42632395195545     -2.50622415512439      0.00028516485529
  H   -4.76799405559080     -1.29062033480721     -0.04254229744676
  H   -4.35862170867482      1.35394445465118     -0.04671568229807
  H   -0.86606847547919      3.84407433329196      0.01772009901161
  H   1.26233824362006      3.30683770667835      0.01968193993956
  H   3.37497796453010      2.15853816551072      0.01934456828163
  H   4.60058576446315     -1.50981653774847     -0.10015484712595
  H   5.22298370752830      0.07684191247943     -0.19756807106574
