30
Coordinates from ORCA-job ./opt_b97-3c_parallel
  N   -4.74351056433239      1.22913214156740      1.03117318740163
  C   -3.69088841103479      0.91173068822593      0.65333554002661
  C   -2.40597129202869      0.56707812484345      0.16422476667550
  C   -1.94757200999541     -0.71095731065105      0.40545157809123
  C   -2.79982254749277     -1.70692666181560      0.96410940229110
  C   -2.30055195475070     -2.94599505560857      0.62528712533976
  C   -1.09116906851809     -2.79556220756278     -0.08466517294405
  C   -0.77471765101350     -1.43904657442354     -0.17923790598499
  C   0.53971954310989     -1.00940877222618     -0.46002499778008
  C   1.38576927572009     -2.03720964013942     -0.97366802072904
  N   2.01874208419021     -2.87340583434604     -1.46972327613271
  C   1.17477226515161      0.20363370076146     -0.17307048482746
  C   2.55540104033526      0.34550507201975      0.10090605135240
  C   3.56109436355323     -0.60963458043194      0.24977038642917
  N   4.49492807780562     -1.28093327768607      0.43715912640458
  C   2.80692782206483      1.71086783524596      0.44980434391656
  N   4.00863030760288      2.17415844151537      0.81815100099150
  C   1.61966865361528      2.44058548003013      0.31166033339023
  C   0.60014572819333      1.57312800042616     -0.07574791463841
  N   -0.55537067021825      2.04604778475728     -0.52113939991270
  C   -1.77758659521660      1.62389288119295     -0.61541110013299
  N   -2.59712261046073      2.32980960004321     -1.43552604179406
  H   -3.74736888581191     -1.50539465085134      1.43471460164150
  H   -2.75906990877601     -3.89273501503130      0.86636450487261
  H   -0.44384853543592     -3.60087254754095     -0.38811428303091
  H   4.10938414651293      3.09651926727882      1.19761373724915
  H   4.77691921956231      1.53612089681884      0.93823554191668
  H   1.50960467842391      3.50896791413378      0.39179289256283
  H   -2.26276165700033      3.22332940323902     -1.75366413825970
  H   -3.59224784465577      2.20057262041862     -1.38991883408468
