29
Coordinates from ORCA-job ./opt_b97-3c_parallel
  N   -5.48493492213553      1.83496026336641     -0.00074432855985
  C   -4.55609963362349      1.13308205814940     -0.00067105594778
  C   -3.48076099436182      0.24471899863113     -0.00044110926028
  C   -2.10352068017772      0.53947428177511      0.00017881607936
  C   -1.62532011769734      1.84245579543708      0.00095009552839
  C   -0.37217581073557      2.44575364486691      0.00155934563066
  N   0.89035256754758      2.05389017142682      0.00120563105431
  C   1.50930483049567      0.89756464580061      0.00068112916345
  C   2.92798841983578      0.90607021445969      0.00024403147091
  C   3.75751649559047      2.03083967320989      0.00012438795843
  N   4.52975711062142      2.90036547966465      0.00010062385121
  C   3.41415917483226     -0.41768722618825      0.00010935931849
  N   4.69320026240001     -0.78864079784961     -0.00027011333950
  C   2.29548701938027     -1.29495012228616      0.00044198199983
  C   2.42286509958996     -2.68588776108825      0.00036342630168
  N   2.58607459168536     -3.83848620765504      0.00018015810956
  C   1.09764377826857     -0.54559344209321      0.00066129631594
  C   -0.12305705573630     -1.19126137869326      0.00049323614456
  C   -1.45167376232317     -0.78647624003413      0.00016228845652
  N   -2.38150063140310     -1.76848907273137     -0.00036875363700
  C   -3.58858793784458     -1.17476574513861     -0.00077557125984
  N   -4.71634236165248     -1.88617616976154     -0.00143997683957
  H   -2.42000341420403      2.58106287185574      0.00113816973979
  H   -0.44382302998425      3.53034913470293      0.00232967135240
  H   4.95092841258822     -1.75957716933252     -0.00023963388669
  H   5.42610517656277     -0.10130839375701     -0.00044751620853
  H   -0.05164959205412     -2.27326240336070      0.00036483095522
  H   -4.66559245097583     -2.88871421367905     -0.00149925531420
  H   -5.61590378698897     -1.44179187629764     -0.00162981017741
