30
Coordinates from ORCA-job ./opt_b97-3c_parallel
  N   -2.30347181627544      3.45551437903549     -1.12971170115513
  C   -1.88563251390027      2.43926022631727     -0.75645886905613
  C   -1.37726327506986      1.17858017445419     -0.31951500183719
  C   -2.38864043125446      0.24038685576134     -0.02559484648592
  C   -3.74242266292668      0.56777777213104      0.00798300102933
  C   -4.41228819202181     -0.52740109091455      0.58674856268479
  N   -3.60413852671483     -1.53241034301850      0.89677108147309
  C   -2.33589983365001     -1.14298947495956      0.50215159716149
  C   -1.40218460698814     -2.13449911860934      0.49942122096739
  C   -0.09576800024522     -2.29403962046177     -0.02671943603611
  N   0.22198340389525     -3.60084047372595     -0.25510203412815
  C   0.91308996406350     -1.32708140551076     -0.22648470408475
  C   2.10633148584306     -1.88248221166620     -0.75869707396612
  N   3.00018658124061     -2.42222121835067     -1.27050081103540
  C   0.98838746787265      0.06216052674687      0.06641006847902
  C   2.22366401415343      0.67983577914878      0.29968262427770
  C   3.45620525928935      0.11715516366188      0.64205025830365
  N   4.52051434951240     -0.21161396926190      0.97992274069163
  C   2.05882515463949      2.10852377349728      0.24185076790384
  N   3.05352040008001      2.97664233376239      0.46276339785343
  C   0.73006295749817      2.37872408663012     -0.05174226835659
  C   0.00875253826399      1.17044534522248     -0.11091148899164
  H   -4.17980828270557      1.50667138491545     -0.28637382685643
  H   -5.47322933533620     -0.59668691576268      0.78241642102069
  H   -1.82260714166031     -3.05690860286391      0.88318149674648
  H   1.10190204227407     -3.84516711612997     -0.67598819344846
  H   -0.51747042932476     -4.27117661656196     -0.34896007685292
  H   2.89084631029733      3.96573682718456      0.46060519815473
  H   3.97085169912629      2.65122105621182      0.71278047997643
  H   0.29767144352451      3.35980004401696     -0.14518092063282
