28
Coordinates from ORCA-job ./opt_b97-3c_parallel
  N   -3.73370283491656      2.98459719177746     -0.73296479452304
  C   -3.04829941444128      2.06176805434025     -0.54646630650339
  C   -2.25051375328371      0.94043624468232     -0.32096196026288
  C   -0.84096902304594      0.94024196808397     -0.07208641959757
  C   -0.20172749490391      2.13475975762887      0.10795939090907
  C   1.13477409409219      2.50519591054205      0.43050243489785
  N   1.27326704494719      3.65895362490874      1.12150100825150
  N   2.26711085471091      1.98994174717793      0.00447250421331
  C   2.63859990921694      0.79836943129384     -0.37313110623368
  N   3.87390751298146      0.62773942229296     -0.90166093791938
  C   4.05647409485351     -0.69423402497918     -0.88363017910299
  N   3.06374784826240     -1.45426673301920     -0.36857106687577
  C   2.08518947971826     -0.57640287480062     -0.09568860413551
  C   0.82649034679738     -1.06355040754298      0.28838182104432
  C   0.86643786745075     -2.41849611737036      0.72971179423575
  N   0.90739423969623     -3.48243931679195      1.18971459127833
  C   -0.44826111252569     -0.47771593518130      0.15688431670248
  C   -1.63819139699008     -1.22732080928346      0.11819423499363
  C   -1.88707177725590     -2.60191884393317      0.20788098948370
  N   -2.31748109718695     -3.68266903683364      0.23402495951959
  C   -2.74013080808010     -0.36397615351088     -0.19286870985785
  N   -3.99988073384516     -0.76931245337648     -0.33042420547225
  H   -0.85833558364812      2.99435872216572      0.02254142512958
  H   2.19391066385697      4.04433562249428      1.23838100577537
  H   0.48746506689775      4.13349590528353      1.52467162212133
  H   4.96058229015155     -1.14836311395628     -1.26224151525601
  H   -4.72516033247049     -0.12469631976054     -0.58914782254608
  H   -4.23844978773782     -1.74097604313630     -0.22704905016453
