28
Coordinates from ORCA-job ./opt_b97-3c_parallel
  N   -2.96741351598586      3.03559459365394     -1.01608076944351
  C   -2.19494235721770      2.23151029394507     -0.68438776941836
  C   -1.23482954488832      1.26644140178072     -0.28322980790372
  C   -1.81768597334947     -0.00624628674780     -0.07458140559152
  C   -3.18352746728128     -0.18666285666758     -0.02588871816911
  C   -3.40390315280378     -1.55605625987235      0.25749797292435
  N   -4.58020637680273     -2.14590454538803      0.46866515933860
  N   -2.26931152258223     -2.28065455460968      0.31694802120243
  C   -1.25349858861188     -1.42574942902910      0.10429863604137
  N   -0.06650080518185     -1.94508284137481     -0.03333683027828
  C   1.14739765264380     -1.46191742157057     -0.14769050636783
  N   2.15036439756395     -2.32371107287853     -0.35549333463878
  C   3.27152191881918     -1.57594798643866     -0.22587624165323
  N   4.48000352500363     -2.10566112901635     -0.38691974071778
  N   3.10857409081761     -0.26846941065912      0.07443459409132
  C   1.78031818815912     -0.09346446495815      0.08083163050332
  C   1.29562752297007      1.20201869505139      0.28432739009441
  C   2.32772636545053      2.11281101493092      0.64681254514401
  N   3.08400201595953      2.93989891818151      0.95395815357648
  C   0.03882339552118      1.83527162921842      0.00627837945917
  N   0.08081396784339      3.18886879355698      0.00956877219622
  H   -3.94019898765218      0.57418487405842     -0.11605081748934
  H   -5.44578206417476     -1.64754976407270      0.38279030710257
  H   -4.60211205119021     -3.13229309782963      0.65886246481298
  H   4.57237119488153     -3.08041390418694     -0.60485691433566
  H   5.29650924695141     -1.53819093784802     -0.25176662209092
  H   -0.74974474812065      3.73494099249291     -0.12954721569054
  H   0.95024122985773      3.67898675147661      0.12075199760262
