29
Coordinates from ORCA-job ./opt_b97-3c_parallel
  N   -1.07865904319852     -3.16129449313396      1.12115463158665
  C   -0.59626741023763     -2.19523812213494      0.69740382500588
  C   0.06517471255208     -1.00240509159731      0.26675549335471
  C   1.45032244589468     -1.17726319984621      0.10974401813938
  C   2.03492968562687     -2.45213823720190      0.14731377044292
  C   3.37804498544229     -2.36947990457951     -0.24456709943135
  C   3.69317142840627     -1.05162300435319     -0.51109809068052
  C   2.55267597985695     -0.23717849229557     -0.26934601521064
  C   2.71572155898275      1.12161570214431     -0.24674854545107
  C   1.92308953637367      2.23816063684633      0.09280717971700
  N   2.64744645491480      3.42169803637981      0.19183341675339
  C   0.54779241405140      2.36812595195979      0.20038886698020
  C   -0.56468077144830      1.54462384381805      0.06447923824955
  N   -1.75036573195830      2.20797693438286      0.00902439582840
  C   -2.71926448713182      1.29106298364739     -0.10029307896212
  N   -4.01177374993383      1.63176369481412     -0.21667473201372
  C   -2.20605891887524     -0.03299946209613     -0.05867354844415
  C   -3.03890493046328     -1.13403515266366     -0.26379394909905
  N   -3.85674037380852     -1.93408898405631     -0.48197802925444
  C   -0.79746653365595      0.08942135301828      0.05554422675277
  H   1.50952043062229     -3.36341740410479      0.37524016622973
  H   4.05151868182878     -3.20899172463306     -0.32336551196763
  H   4.66153131673619     -0.66447931105620     -0.78651087808376
  H   3.72875852393428      1.41223287122563     -0.50937837905672
  H   2.17416491788903      4.19671023285380      0.62291370933617
  H   3.60223248890913      3.33830697008821      0.49454420632785
  H   0.21828923897569      3.39391914069260      0.32587712168085
  H   -4.23498236053705      2.59123089246332     -0.40896266795038
  H   -4.69113730424749      0.93088542931582     -0.45374003697665
