25
Coordinates from ORCA-job ./opt_b97-3c_parallel
  N   -2.92952077295068     -3.01530882224858      0.01484819715826
  C   -2.51356580331993     -1.92743812549595      0.02415209826308
  C   -2.06558990810978     -0.60685791643446      0.03016448272184
  C   -0.73555498502874     -0.13733669280671      0.01973915262523
  C   0.35115275075169     -1.01141242954941      0.01370734168261
  C   1.71443885269574     -0.85164002419719      0.00431396038120
  C   2.55870564701049     -1.97861693989508      0.00210859143532
  C   3.89157251317663     -1.57208806663865     -0.00631220870898
  C   3.94490790304795     -0.17958088281374     -0.01005739183072
  C   2.64142604883888      0.35090590401305     -0.00415091558585
  N   2.49888403886792      1.65991135703522     -0.00783335428541
  C   1.45429753888983      2.47177812819058     -0.00491239374011
  C   0.06639858896170      2.35015563973382      0.00511955917588
  C   -0.86243387737264      1.31713976916265      0.01687880913190
  N   -2.17930053022368      1.67528271159577      0.02265815800435
  C   -2.89979387402992      0.55095181720438      0.03142888471325
  N   -4.24362769067701      0.55977081475521      0.07599601069239
  H   0.04773301152294     -2.05468924433798      0.01791180652101
  H   2.20588903692887     -2.99863720658919      0.00685060049405
  H   4.74471758750874     -2.23311903592454     -0.00936090014428
  H   4.82632214475666      0.44000547800299     -0.01683105273133
  H   1.76671346222664      3.51311777264405     -0.01131387354712
  H   -0.43156668456443      3.31277593001863      0.00484708974015
  H   -4.71156350287694      1.43302714735498     -0.08736218507762
  H   -4.75566691473088     -0.28377726037964     -0.10707615828917
