30
Coordinates from ORCA-job ./opt_b97-3c_parallel
  N   1.33281104807392      3.98024006262974      1.21601860015846
  C   0.88923856267449      2.97718444618548      0.83843881664414
  C   0.36752702868128      1.72286378929003      0.39187700624870
  C   -1.01393438932972      1.68475723247272      0.25325712025573
  C   -1.78321610107468      2.86733082977076      0.32022651223711
  C   -3.03036286593324      2.62654846643680     -0.24295845681540
  C   -3.12081328147063      1.29001853943157     -0.62891598367002
  C   -1.92968408668300      0.62159924553346     -0.28016763232088
  C   -1.89334284430399     -0.77593574719313     -0.21339254845909
  C   -3.09642817293950     -1.40288914211836     -0.64720766559190
  N   -4.06373606813627     -1.93980170992583     -1.00273273573659
  C   -0.95376091379723     -1.72623934750447      0.30753885791347
  N   -1.49446347056167     -2.87361196842157      0.79908041659353
  C   0.46287514854855     -1.67621434464897      0.23350975012550
  C   1.08448636255286     -2.93770865058597      0.46434831600132
  N   1.46193134748666     -4.00798123451715      0.71253165399267
  C   1.38689524410832     -0.67401786228656     -0.10575788057199
  N   2.63492060751095     -1.09387710849969     -0.39574979778407
  C   3.41644981916485      0.00158376780436     -0.46510482023174
  N   4.70818716436306     -0.10551495909640     -0.81277643886609
  C   2.69940919813547      1.18132590784311     -0.16931102482186
  C   1.37923380223864      0.79858127390707      0.04021406590158
  H   -1.40873923137144      3.82497549723256      0.63882352774101
  H   -3.81092568959628      3.36160656370722     -0.36545772314510
  H   -4.00332344845479      0.81226707593398     -1.01808347882302
  H   -0.91973862211762     -3.69453506437752      0.89034115846607
  H   -2.48082850348344     -3.03713535846083      0.70258391153812
  H   5.10686714676523     -1.02550973995777     -0.87683315902634
  H   5.33324445882778      0.67140625321008     -0.71110588250448
  H   3.08767847982082      2.18478797850073     -0.13131185844890
