28
Coordinates from ORCA-job ./opt_b97-3c_parallel
  N   -1.38156103457366      3.56737411444209     -1.32014686351078
  C   -0.97771306219092      2.54860121090195     -0.93780247436982
  C   -0.60014979068086      1.24833748306492     -0.49508060260785
  C   -1.69464140520305      0.39582010417347     -0.23188262804514
  C   -3.00168232727825      0.81208056379188     -0.15123773860139
  C   -3.72949786150955     -0.28006863822330      0.40953956794692
  N   -5.02182691531219     -0.26768732525921      0.73869493682078
  N   -2.98636179032381     -1.38051215607049      0.60407253471021
  C   -1.74042716943440     -1.06486964623516      0.18257848501147
  N   -0.87856397594134     -2.01643388219212      0.02755149175505
  C   0.39449093400811     -2.20424327981390     -0.24679191720826
  N   0.64878245344804     -3.37791491160412     -0.86906640068188
  C   1.52242303070929     -1.41544619968822      0.14702806693322
  C   2.71777758827091     -2.14925301320634      0.34228205174196
  N   3.64657160181584     -2.83891461181287      0.45911393772238
  C   1.64177502795518     -0.02447044227735      0.24549198785858
  N   2.83558423732096      0.49033299854643      0.56386383264770
  C   2.71341256332097      1.81269796413602      0.29695164272475
  N   3.72313321344717      2.65873501485488      0.49231818143665
  N   1.51735226325903      2.22688932616889     -0.16906574619409
  C   0.75917228645675      1.11662715292690     -0.18481914658830
  H   -3.38035109311531      1.79713778134810     -0.36538017220234
  H   -5.43386585233307     -1.09384175859550      1.13471599533884
  H   -5.60739221318731      0.52260564626868      0.54602668621461
  H   -0.09038461237344     -4.05801349811217     -0.88774696405911
  H   1.59339269551437     -3.69982576951364     -0.98847781235730
  H   3.61456059040922      3.62817797125859      0.25998016875681
  H   4.59992901772026      2.31810064872272      0.83973175700560
