28
Coordinates from ORCA-job ./opt_b97-3c_parallel
  N   -1.56856044408070      3.90195807090237     -1.15699095053075
  C   -1.05974128998760      2.92552449097717     -0.79521472568538
  C   -0.47511201095219      1.68365039115178     -0.40171244912849
  C   0.91275110329400      1.69561714508001     -0.28122459261309
  N   1.51861953130298      2.89251726924098     -0.39784767417290
  C   2.77958745198381      2.73723622531806      0.05466282698684
  C   3.05731422441806      1.44418351575737      0.46749904608478
  C   1.90433309750592      0.67550218202114      0.20964080586154
  C   1.94476888673956     -0.72103228649212      0.23394794494239
  C   3.18622656234654     -1.24740903305211      0.68992473459900
  N   4.18763202813548     -1.70480143704199      1.06148437170711
  C   1.05868223400424     -1.75148579949126     -0.23556891150179
  N   1.66282468495785     -2.89803441606948     -0.62614422653871
  C   -0.35993837531310     -1.76014513537302     -0.21839467866324
  C   -0.92260820989091     -3.04554585551813     -0.45600250602182
  N   -1.25377904547218     -4.13216083748595     -0.69916802997085
  C   -1.33504419771265     -0.79192856120541      0.08406014759448
  N   -2.57500771889117     -1.23514838337993      0.34035462442834
  C   -3.33410819096551     -0.11954907866770      0.37600029407057
  N   -4.63219022912848     -0.14807131139664      0.66093295024289
  N   -2.68949443979565      1.04407075600274      0.10825358781304
  C   -1.41350636669447      0.68776642314415     -0.05889588302211
  H   3.45554653858858      3.57967491396877      0.06659768261496
  H   4.00537695119864      1.06958145819960      0.81158495334488
  H   2.65793914522818     -3.00280163747844     -0.54100149759794
  H   1.12713882979698     -3.74205962850369     -0.73923596836581
  H   -5.16426424331185      0.70252779724987      0.64813344344702
  H   -5.09061279680447     -1.02462008655810      0.82847017317506
