29
Coordinates from ORCA-job ./opt_b97-3c_parallel
  N   -2.69325937605061     -3.52253427890180      0.58125235119388
  C   -2.53690982753372     -2.38506252256056      0.38392314642023
  C   -2.43247601522836     -1.01791662487362      0.13672526840603
  C   -1.28394344032929     -0.20769880565735      0.12847899611764
  C   -0.01211149823110     -0.73220611611251      0.31398398359455
  C   1.26259555827266     -0.22793489127904      0.15735894814587
  C   2.40543138969333     -1.05075292849776      0.12572840254574
  C   2.49953206852772     -2.42626317174887      0.32105091152194
  N   2.63904132029397     -3.57306901165503      0.47413184260797
  C   3.48568292230796     -0.20869019536730     -0.27108973317107
  N   4.73859698528349     -0.60577699452196     -0.49281517600937
  N   3.12416170982547      1.07622347612821     -0.40547662195227
  C   1.80334811237757      1.14791971005210     -0.12762659422865
  N   1.27499413328918      2.33601019232971     -0.01402081256661
  C   0.07483657642998      2.86253015942754      0.10462379149823
  N   0.11218818202634      4.18036142826326      0.46646921233417
  C   -1.22325564371101      2.38469847879112     -0.21136362620804
  C   -1.80101026697099      1.14248121182094     -0.21947781944107
  N   -3.14469147055033      1.08380861517063     -0.45968162424432
  C   -3.52529185613003     -0.17508242824599     -0.24653686289583
  N   -4.79690268492429     -0.56878764840614     -0.37023155345112
  H   -0.02307533827417     -1.79865963398398      0.51950274582866
  H   5.01012030207519     -1.56480310881340     -0.37584491240487
  H   5.42386436345397      0.06856452397249     -0.78100975994016
  H   1.01065165374679      4.54926138490365      0.72457803404502
  H   -0.70327321027146      4.62213575313568      0.84908590757771
  H   -1.94292272452968      3.16798496571018     -0.41577512970086
  H   -5.04731988952735     -1.53653995465298     -0.28320190332609
  H   -5.47428989674211      0.07662866627316     -0.73320638779819
