27
Coordinates from ORCA-job ./opt_b97-3c_parallel
  N   -3.72897398166713     -2.50981487904581     -1.02357730163975
  C   -2.90427719865552     -1.77919441228184     -0.65433775634935
  C   -1.87561807215773     -0.92095291232994     -0.18297315051074
  C   -2.13241482825338      0.42896795607926     -0.21656344305374
  C   -3.41237015797411      0.93879012639866     -0.56119971127447
  C   -3.51102478980020      2.23713972607321     -0.10320851966062
  C   -2.29156721313868      2.64611489445119      0.47372969800835
  C   -1.35909410210529      1.61855366735902      0.37858975433201
  N   -0.08333409840008      1.88115002936393      0.59541308816651
  C   1.00900219915275      1.20987680231600      0.35042903187152
  N   2.18346286342314      1.89009890288078      0.29839041504659
  C   3.12418324521373      1.02203930396667     -0.08852494715328
  N   4.38817952798116      1.39959213262798     -0.28464709482962
  C   2.62538830933380     -0.31176111076148     -0.24778005847859
  C   3.39559882691527     -1.44264719012776     -0.51382957848700
  N   4.08823172639203     -2.35077906546596     -0.73987517030311
  C   1.26367701586583     -0.25078878376659      0.06505622616073
  N   0.54110861711040     -1.33230240212254      0.25551386383304
  C   -0.71872041470633     -1.63698263592537      0.35084896340689
  N   -0.98264435242180     -2.83398598099647      0.92973498508938
  H   -4.20789448471824      0.35844468229607     -0.99761525508118
  H   -4.39372809822871      2.85352502644927     -0.18495059479062
  H   -2.04309715179439      3.63258147692227      0.82708352590052
  H   4.65088886225125      2.34927626269094     -0.09173518630501
  H   5.09431038618685      0.73907665557170     -0.55299734187003
  H   -0.20006444818388     -3.44706791274703      1.08066307195517
  H   -1.89678740662306     -3.24671945807653      0.87704260671551
