27
Coordinates from ORCA-job ./opt_b97-3c_parallel
  N   -5.16359567543471      0.75655070064875     -0.02536846529114
  C   -4.02252437395604      0.52157668146805     -0.00252296909986
  C   -2.65741217287850      0.23878509008750      0.02042178992588
  C   -2.08014673373864     -1.04121348523620      0.16821809241825
  N   -2.80489716440200     -2.15673000098732      0.35651167012820
  C   -0.65423893717101     -0.93547597365229      0.06475747248002
  C   0.13182201215686     -2.05914257186607      0.21981274659127
  N   1.37226905670902     -2.39910663472877     -0.11386021136007
  C   2.47642948872882     -1.73447426703772     -0.31853365745043
  C   2.86826041447066     -0.41342623416155     -0.06179183294517
  C   4.22982238029579     -0.04056290256132     -0.06004097996212
  N   4.42044051282386      1.27617195816112      0.14743892275296
  C   3.18187851148003      1.79268992759311      0.24437108100846
  C   2.15763486650864      0.82462347972742      0.13556292474325
  C   0.81727801004479      1.19983684847778      0.02979693056662
  C   -0.35332624130152      0.49572762970028     -0.11273869252434
  C   -1.61359791358406      1.17214980074719     -0.16045741837696
  N   -1.81819202958758      2.49386222902483     -0.29849388686514
  H   -3.80643934023583     -2.10385641671535      0.29524893360988
  H   -2.40039409761707     -3.05967190229794      0.19724308971271
  H   -0.39739404039673     -2.91581756218457      0.63712456647643
  H   3.27184342031037     -2.35819910819507     -0.72530825367690
  H   5.07008916324373     -0.70974263954855     -0.18748180388371
  H   3.03303010939561      2.85892256741315      0.35742060259860
  H   0.69198372371464      2.27768743262819      0.08896295707683
  H   -1.10327737161155      3.07209573010542     -0.69854317685984
  H   -2.75973649446699      2.83128135319046     -0.39597394419367
