24
Coordinates from ORCA-job ./opt_b97-3c_parallel
  N   -0.46624228390676     -3.67348298418859      0.94918662366349
  C   -0.41097764608785     -2.55679908807299      0.64287503692973
  C   -0.20528442213599     -1.18253150183615      0.29693124597417
  C   1.13747247189632     -0.83703992599470      0.08036347398127
  C   2.15981057614013     -1.77552610437461     -0.04185974498899
  C   3.29416346129985     -1.07922983561530     -0.48556723473617
  N   3.10795992130549      0.23772984564300     -0.59401750382901
  C   1.81233398799678      0.47674252732248     -0.23320782637863
  N   1.47323204165723      1.72071636587943     -0.06789268368977
  C   0.38144709089840      2.41481990173429      0.18609008010429
  N   0.63326379354812      3.65491591436110      0.70122175610801
  C   -0.96485802270013      2.12676672915877     -0.13188513414397
  C   -1.67858609948834      0.95604992588645     -0.23084741508962
  C   -3.07118439926746      0.96628667616648     -0.47503915971211
  C   -3.53011946924128     -0.31743380086428     -0.23494835447435
  N   -2.54409794530406     -1.16697925658002      0.12419873720316
  C   -1.39064640621310     -0.46285435604821      0.11230042422016
  H   2.07405066671239     -2.83693002971669      0.11679077650108
  H   4.25419415834187     -1.51411864218703     -0.72584581055838
  H   1.57853588107030      3.99126788704355      0.63734384028523
  H   -0.10008899473562      4.33628324566270      0.76904482787973
  H   -1.56309680906294      3.01657300323539     -0.30244194041495
  H   -3.65448117371157      1.83507874453144     -0.73478000887698
  H   -4.54658292001176     -0.67446313834582     -0.31118806205734
