29
Coordinates from ORCA-job ./opt_b97-3c_parallel
  N   3.69811998743661      3.02573457612511     -0.62571851996314
  C   2.98831368986038      2.11823164973755     -0.46196065045055
  C   2.20071139974683      0.98003564161728     -0.28426348999613
  C   0.83450837855155      0.94789064011466      0.06624968417830
  N   0.21481332900931      2.05005000518070      0.42590307452982
  C   -1.04800911302525      2.37177475564567      0.56217883222957
  N   -1.34161822911046      3.32807442377293      1.46840177036069
  N   -2.08601983489749      2.01008867753839     -0.22542277741222
  C   -2.48382658566073      0.81659842796311     -0.52374137408529
  C   -3.70730309319517      0.61675372882061     -1.24039007577508
  C   -4.13437861225996     -0.66248036442697     -0.99527260920458
  C   -3.17554173164493     -1.36255564178518     -0.20981392088664
  C   -2.08790907698114     -0.53995543463714      0.03583766764170
  C   -0.82097525980790     -1.03451995392721      0.41601960355291
  C   -0.85733997628080     -2.37296363638225      0.90495514829204
  N   -0.96013209921213     -3.43059599215309      1.37072577548179
  C   0.44943036130667     -0.48034420802596      0.22110031202585
  C   1.64131207039919     -1.23244795098753      0.05191695070791
  C   1.85752349944009     -2.61138305864801      0.01250424197252
  N   2.19745033861467     -3.72227371286891     -0.06957483021156
  C   2.69762076500630     -0.34544072991456     -0.29382335326016
  N   3.94467221035794     -0.71004815038858     -0.58384749222173
  H   -2.22074115404121      3.80663948820325      1.38185562135060
  H   -0.57287296722162      3.82138956122643      1.88877969586550
  H   -4.24804950943270      1.41390176841593     -1.72146981703556
  H   -5.06332024719959     -1.09141729707216     -1.33938835268604
  H   -3.23111946767389     -2.40851295907802      0.04186013673259
  H   4.63276022974818     -0.02775601261064     -0.84763846639523
  H   4.21713017776720     -1.67716832535459     -0.54822468093823
