29
Coordinates from ORCA-job ./opt_b97-3c_parallel
  N   -0.75453682828040      4.54367007456000     -0.44009062768397
  C   -0.80774642041014      3.38688341333423     -0.33156981573268
  C   -1.01349881743831      2.01306075214449     -0.18648155989501
  C   -0.02335067227536      0.99158371360549     -0.20005381195332
  N   1.21662904191016      1.36446919613411     -0.37622312312153
  C   2.38297309261892      0.78703663638827     -0.21247575574608
  N   3.47748033505965      1.56348636617069     -0.32184585629268
  C   4.53527943660753      0.81137615404698      0.06937308669678
  C   4.18923492763899     -0.47001010982462      0.45426517930131
  C   2.79570984931390     -0.59064478360235      0.24553757867516
  C   2.16781842938127     -1.80157614585189      0.32357361197730
  C   0.90075811822030     -2.31545638817271     -0.03935939974458
  N   0.89335934772105     -3.67809398707447     -0.14484710081698
  C   -0.34258228312838     -1.64891172387078     -0.21137569189565
  C   -1.37799015733572     -2.53390407537476     -0.61588909646554
  N   -2.12367811402045     -3.32702388579134     -1.02357203955733
  C   -0.75196027933811     -0.31127497757287     -0.01671413289760
  C   -2.10509252034753      0.02673507834362      0.17119970607895
  C   -3.19765080275571     -0.77574782512403      0.51617291867116
  N   -4.17811363104246     -1.30494680432351      0.85245478376099
  C   -2.26842330381585      1.44403800225422      0.08313731866461
  N   -3.41654406755730      2.09314052466255      0.25344981318144
  H   5.52723482803551      1.23934810809045      0.06085493674443
  H   4.84924399689724     -1.25836804049271      0.78040578434047
  H   2.83823649325089     -2.59304858482408      0.64424844201500
  H   1.76222679882680     -4.15686933317757     -0.28987570409322
  H   0.07030703476317     -4.15730536922478     -0.46739232421206
  H   -4.26449421764640      1.59528653858890      0.46319799253703
  H   -3.45140013215316      3.09582402907523      0.19487338415991
