32
Coordinates from ORCA-job ./opt_b97-3c_parallel
  N   -3.02083277620343     -3.94889008631430      0.10156740576051
  C   -2.78766902467028     -2.80742805106277      0.07730598414416
  C   -2.59572645058061     -1.42723244306510      0.04839481779567
  C   -3.66447224224009     -0.49388403218010      0.01987143629065
  N   -4.96271206197139     -0.81994053565276      0.04990503888635
  C   -3.12016916346249      0.79520921533213     -0.02687954320265
  C   -1.72360240447669      0.72935253073704     -0.01583192367538
  C   -0.95916999627271      1.91942683311229     -0.06115200770869
  C   -1.77330607127268      3.07533672397389     -0.21886489738376
  N   -2.40143074180909      4.04365869724061     -0.35750054319232
  C   0.42171733023163      2.24777741512634      0.07874171724016
  N   0.71207419708956      3.58743889044426      0.20465795750659
  C   1.57478015960798      1.44675089564447      0.12647045871010
  C   1.91317766799217      0.11832355558589      0.02876436178768
  C   3.27576921254415     -0.29105537418650      0.02165004831830
  C   4.40538361384755      0.52093303163675      0.07669937616992
  N   5.36132922769791      1.18618741792135      0.12208765605056
  C   3.26669757081231     -1.70033839412326     -0.07897941324888
  N   4.32772703280221     -2.51094008898417     -0.15139501958982
  N   2.01176727153787     -2.19678915766829     -0.11442431812922
  C   1.16354127076195     -1.14768084942032     -0.05395111740983
  C   -0.19219143108286     -1.44275490410447     -0.02230447198479
  C   -1.36530739460718     -0.72286031172640      0.02190006694196
  H   -5.67575132973943     -0.12027385315742     -0.03189270051385
  H   -5.24859718118031     -1.78287784203605      0.04722732531270
  H   -3.70192611945009      1.70048450751492     -0.04514008214958
  H   1.64950710342069      3.88566398289058      0.00779382319714
  H   0.00206211777812      4.27401321916208      0.02015007590718
  H   2.46394376760186      2.05877956800688      0.24127234940458
  H   4.18073241808421     -3.50365519152934     -0.14690490454535
  H   5.25962529220859     -2.15719264237228     -0.03958429276908
  H   -0.34428942079940     -2.51616053564578     -0.03969224802113
