33
Coordinates from ORCA-job ./opt_b97-3c_parallel
  N   2.99062971593841     -3.95556461522029      0.03547377365567
  C   2.26409430356258     -3.04986130015687     -0.00554901239725
  C   1.25398674201030     -2.04591284829945      0.02486299316525
  C   1.75949949200035     -0.76880548716771     -0.24776751509478
  N   3.05322324980532     -0.72786589847685     -0.62878037607406
  C   3.45248546833111      0.54703906254691     -0.55751642658595
  N   4.67208203399306      0.92836999079657     -0.91717805697281
  C   2.41359319253697      1.41025799716267     -0.08039966205477
  C   2.58667085343113      2.79460748989906     -0.02121205436318
  N   2.88380753656703      3.91956758085847     -0.04037361018637
  C   1.27653128604955      0.60359236226149      0.07362330009734
  C   0.01792222432107      1.10314166347630      0.45155367409105
  C   0.03586522269138      2.32252120060598      1.17912487245285
  N   0.04826329382415      3.23795110154940      1.89399562984207
  C   -1.25471390416957      0.64553566224711      0.06705620616721
  C   -2.36301361696498      1.48977038942011     -0.09452476444192
  C   -2.48837670843095      2.87953734513474     -0.04243592017927
  N   -2.74571849899344      4.01412375948260     -0.06788710826362
  C   -3.42965655323740      0.66001309638238     -0.56961249074837
  N   -4.63453799951145      1.08072456602224     -0.93483802907977
  N   -3.07400041324515     -0.62830293003103     -0.63281105952326
  C   -1.78312919373673     -0.71108369781117     -0.24948253152054
  C   -1.32105783469656     -2.00323765348156      0.03009644242627
  C   -2.36528920618591     -2.97178777736100      0.00924724930865
  N   -3.12270940789730     -3.85137985284042      0.05893692523167
  C   -0.04203318013025     -2.56507492282851      0.33920161377240
  N   -0.06149443743823     -3.80968764138918      0.85166121174859
  H   5.32170875891436      0.24617805320348     -1.26622597566424
  H   4.95595139276838      1.89000630768291     -0.85071116206949
  H   -5.30631294615126      0.41909597419631     -1.28156090378182
  H   -4.88544246511262      2.05191849629477     -0.87490946053194
  H   0.78900330350315     -4.34138164483558      0.93047112297860
  H   -0.92864240124603     -4.31334965602331      0.93348516159605
