26
Coordinates from ORCA-job ./opt_b97-3c_parallel
  N   -0.27045482109425     -3.19609582887776     -0.89080671412023
  C   -0.00176679896334     -2.11581136366700     -0.56546299298676
  C   0.39293373966689     -0.77631327032874     -0.25560194110914
  C   1.76981733375566     -0.64298622496350     -0.05234580139808
  C   2.60866882856951     -1.76589594005601      0.07766100167484
  C   3.88275846870163     -1.35200179412227      0.46871672272564
  C   3.90792552180977      0.03542061818592      0.55538508388905
  C   2.64055954543619      0.54870694637280      0.21176555498565
  C   2.48705189397348      1.88971854937330     -0.05367221705867
  C   1.43169665541481      2.69006885526495     -0.51590906700687
  N   0.13101205542402      2.57241310209960     -0.52928156613116
  C   -0.73725462105517      1.62815741975204     -0.22052640686926
  N   -2.01572760493868      2.04653694698078     -0.05774911055282
  C   -2.77043992081965      0.96568954820429      0.15261388436015
  N   -4.07449255258147      1.04808491728263      0.42254730223736
  C   -2.01711626471659     -0.24683965259221      0.05448013288939
  C   -2.62871114192953     -1.48341844550139      0.27181169488176
  N   -3.28844532877695     -2.41459610834305      0.50292432083874
  C   -0.67683728587060      0.13879100688966     -0.13937212700934
  H   2.29385895167036     -2.78809792625164     -0.04332526286544
  H   4.71366339821354     -2.01103597802904      0.66791633282683
  H   4.76685006845852      0.64711894647580      0.78172031285371
  H   3.40358941348522      2.45880314004442      0.06530887470549
  H   1.76221839633594      3.66894428660965     -0.85796466024773
  H   -4.51227940232723      1.95020473457906      0.46026843611368
  H   -4.63245140024301      0.22338633021772      0.55027765277273
