28
Coordinates from ORCA-job ./opt_b97-3c_parallel
  N   -3.74982074718994      2.90930226661936      0.86761962913176
  C   -2.92496462331523      2.15413900564951      0.55060696073768
  C   -1.90261055755946      1.26452905500769      0.13579365191258
  C   -2.14686340808875     -0.08940321490439      0.29952218689973
  C   -3.39711943603616     -0.57692450745890      0.74491103349413
  C   -3.43700972576539     -1.91426590177507      0.41359731488085
  N   -2.28854708230684     -2.36094506672024     -0.16045156493930
  C   -1.44324866121528     -1.32404268101263     -0.20981096055526
  C   -0.09945926581239     -1.61729793766997     -0.50091628437735
  C   0.14858036814076     -2.96447089100907     -0.90093188003706
  N   0.38672038188503     -4.03267105782974     -1.28222823032044
  C   1.05839022195328     -0.85986948506198     -0.26252970124964
  N   2.23661196557728     -1.48650821071918     -0.14560742993164
  C   3.14438766428127     -0.56096016389390      0.24139325635123
  N   4.40447991604635     -0.90680788519941      0.48350885010205
  C   2.58653129218245      0.74265152780934      0.33199017977538
  C   3.28941264982469      1.92106204546471      0.57810355034645
  N   3.92492919374713      2.87269768068657      0.78946645366759
  C   1.23500330423062      0.60802455762860     -0.03854686836005
  N   0.48931712631199      1.64188172271142     -0.33140148236676
  C   -0.77284176130056      1.92586552568913     -0.48688033066947
  N   -1.03565809713892      3.04401043993824     -1.19902831317258
  H   -4.19479221958198      0.01764842979436      1.15582092678097
  H   -4.25715600033812     -2.59938887788965      0.56888867039834
  H   5.08645797082447     -0.23035440565983      0.77539326901830
  H   4.68634512989792     -1.86101958410737      0.34295876535845
  H   -1.96214506615990      3.43048762656150     -1.23311795707015
  H   -0.26369971329463      3.65479884795172     -1.40457184460617
