26
Coordinates from ORCA-job ./opt_b97-3c_parallel
  N   -1.96622520723314      3.38726160249336     -1.27122995617295
  C   -1.48916763213935      2.40897454615371     -0.87011193147483
  C   -0.99820574958842      1.15194029508718     -0.40921596647173
  C   -1.99631523348305      0.21447557115582     -0.10527421101939
  C   -3.34566347856246      0.50197929370100      0.00396133240013
  C   -3.93605829752561     -0.60426340823279      0.65604636956851
  N   -3.10097578051479     -1.60830051138390      0.90430153931117
  C   -1.88937753913588     -1.21239136713520      0.40026458862901
  N   -0.97240399234583     -2.10348109188332      0.25363150471632
  C   0.27751277934043     -2.20910983646654     -0.16450018101231
  N   0.54694922510474     -3.37875215660694     -0.78152648422183
  C   1.36445538488188     -1.32751764962443      0.11013470021619
  C   2.62956475348554     -1.95920388050373      0.19886528553835
  N   3.61914108199799     -2.56820490044463      0.22591787534636
  C   1.37272284605143      0.07025558803798      0.22273514487563
  N   2.53820467632487      0.67621880957117      0.47678430144767
  C   2.29467867360256      1.98836304652449      0.24592337911162
  N   3.23606074494756      2.91519347218900      0.40384941387442
  N   1.04158292635107      2.30337244649331     -0.14996937759552
  C   0.38256788253895      1.13408519417178     -0.14642430122838
  H   -3.82863967323739      1.42691885038755     -0.26084869758740
  H   -4.97404049561402     -0.67897138558538      0.95101165956532
  H   1.49308162872052     -3.63468134482251     -1.00486518059171
  H   -0.13847280359410     -4.11021059912297     -0.70971258305657
  H   4.15430551175670      2.64965504005547      0.70764798156674
  H   3.02922039026861      3.87686792429051      0.20769875656591
