29
Coordinates from ORCA-job ./opt_b97-3c_parallel
  N   -0.12870296410486      4.39048143431678      0.14082411333422
  C   0.47090307061374      3.39656647526077      0.08926633302812
  C   1.18795622103445      2.19188541999724      0.03218621333681
  C   2.56108758970721      2.08651843486274     -0.10148015743551
  C   2.91293362013341      0.72599375901294     -0.12506517964627
  C   4.24765896015384      0.34201299575007     -0.34175618217609
  N   5.37106466945834      0.15185319413366     -0.56707169165341
  C   1.74156075617486     -0.07266919410462     -0.00605943547043
  C   1.77955298332373     -1.47482563619945      0.11657286667055
  C   3.06181299484361     -2.06469647037428      0.35046040553889
  N   4.02960078450333     -2.65135944373883      0.60576334514083
  C   0.80565426064987     -2.48698678155590      0.06824818182505
  C   -0.56652774324250     -2.57985151968861     -0.06169702016966
  C   -1.63395558303910     -1.69243759378828     -0.08101777688534
  N   -2.87621500079897     -2.22855492352198     -0.17403667387449
  C   -3.75313013767618     -1.21735552996103     -0.10262831156726
  N   -5.07109279181144     -1.40992008376753     -0.16569201983966
  C   -3.08943930379603      0.04109399335520      0.04494935452007
  C   -3.73765028185882      1.27331237955304      0.14016807056153
  N   -4.34192138154153      2.26484193682129      0.21584470824588
  C   -1.71083651586171     -0.23732768519887      0.05294209883995
  C   -0.76308345012482      0.78088513564056      0.12232502488570
  C   0.60960621209244      0.87637920927930      0.06204439279069
  H   3.25526008698850      2.90485499159208     -0.18976023814202
  H   1.25882546756925     -3.46673530138059      0.13790109618252
  H   -0.91853701479377     -3.60178214389112     -0.12963728607891
  H   -5.71599148530227     -0.64356421852410     -0.10434572855350
  H   -5.42968611857398     -2.34161887097090     -0.27073488084066
  H   -1.23172747042041      1.75775121359050      0.19572865123244
