29
Coordinates from ORCA-job ./opt_b97-3c_parallel
  N   -1.08433672340956      4.53088304683243     -0.40338873089311
  C   -1.42871999704834      3.43078291773528     -0.26632850732818
  C   -1.87700916173302      2.11157140937702     -0.10497795315028
  C   -3.16292243117898      1.72183286256832      0.23735679942239
  C   -3.21222808216208      0.31764941644269      0.34214476067788
  C   -4.37564513011449     -0.34531653750602      0.76459572029108
  N   -5.36469903385796     -0.80187470843308      1.16783263136103
  C   -1.93956269395037     -0.23006372455063      0.03805269513446
  C   -1.72033607625348     -1.57854077687137     -0.25672646386980
  C   -2.86292115319807     -2.41761827061928     -0.40607316750169
  N   -3.72174840207109     -3.17192946966027     -0.60627727148065
  C   -0.53909828794381     -2.33269222845810     -0.50136826580736
  N   0.73935636168647     -2.13568831139538     -0.31414955406254
  C   1.51442745226303     -1.09930748472844     -0.11613905679115
  C   2.89269071028537     -1.29206724040143      0.14152770313473
  C   3.55421771151035     -2.51387699052960      0.28924564038551
  N   4.18019281734693     -3.48426625220094      0.42355017012493
  C   3.55219848306349     -0.03849501555212      0.15198596803155
  N   4.84833363942186      0.16751240765599      0.35126929728404
  C   2.58015589949106      0.97211193019935     -0.10294931317926
  C   2.89135444291162      2.33330532512965     -0.14968746599117
  N   3.25670037155187      3.43672892943266     -0.17290458196844
  C   1.30709594341260      0.37942480547248     -0.22361747693081
  N   0.24691561541272      1.14977457003473     -0.30488385330593
  C   -1.03651466466863      0.95356834705771     -0.17525991051354
  H   -3.99530789298915      2.37981608325023      0.42195001172123
  H   -0.75525268846057     -3.34362689809955     -0.83134386470224
  H   5.47322872289121     -0.60083561119652      0.52537704112470
  H   5.23523967667338      1.09517839322204      0.31710789359973
