27
Coordinates from ORCA-job ./opt_b97-3c_parallel
  N   4.57306134707775     -1.79804141274687      0.00370189978163
  C   3.63075838695926     -1.11381698512710      0.01586141070174
  C   2.54396025889877     -0.23804257151839      0.02533142261769
  C   2.67580970101835      1.16864130830495      0.03052262690144
  N   3.83919173813966      1.84810897218003      0.07930438491331
  C   1.38311669115564      1.71556210449804      0.02402459596836
  C   0.42760152228008      0.69165440035312      0.01395334674385
  C   -0.95745233876295      0.98967201627955      0.00262356362119
  C   -1.21403109916787      2.40127829217912     -0.00336516661306
  N   -1.40868778379698      3.54437864780731     -0.00969082093698
  C   -2.11735136644324      0.21764592347951     -0.00376893322456
  C   -3.39464526171223      0.82294651295028     -0.00769524948505
  C   -4.38587565595525     -0.15221190431539     -0.00870244401474
  C   -3.78713448198088     -1.40970112005925     -0.00684021150649
  C   -2.38654854796971     -1.27738567107256     -0.00439664005447
  N   -1.67522151900001     -2.38606199927058     -0.00696326372957
  C   -0.38748058312934     -2.65609477184687     -0.00595926714901
  C   0.79659354415226     -1.91702037686946      0.00456599574547
  C   1.15997188295360     -0.58448114784366      0.01572288958747
  H   4.70246735939990      1.35764648364230     -0.07565076142577
  H   3.84703191113853      2.83293949270993     -0.11063489950390
  H   1.16571929076003      2.77025688632400      0.03067209524174
  H   -3.57040403925536      1.88559088482627     -0.00819600172170
  H   -5.44693630116671      0.04317136237418     -0.01069347562407
  H   -4.27593686859911     -2.36963986185294     -0.00856648002870
  H   -0.20069043024208     -3.72690025163028     -0.01211698513619
  H   1.65882994334788     -2.57608821135525      0.00654940903042
