29
Coordinates from ORCA-job ./opt_b97-3c_parallel
  N   3.25813782774207     -3.39877618206314      0.18680461066592
  C   2.57527192965794     -2.46376641556981      0.12269121247408
  C   1.65491995988629     -1.37089538336758      0.04120975223327
  C   0.32930223019339     -1.79696784523006     -0.06240496355364
  C   -0.94896775860007     -1.22720003772957     -0.10084864661044
  C   -1.93120905353254     -2.25636783783415     -0.25271935297806
  N   -2.65741797169709     -3.14631814914360     -0.41609178655717
  C   -1.44217706885847      0.08844118166457     -0.02318843391935
  C   -2.80556213546185      0.40038684402096      0.05295044466449
  C   -3.94562361267951     -0.39227618211153      0.22712612677799
  N   -5.00326548468494     -0.84774588381280      0.39847591021707
  C   -2.97842561875923      1.83256625526028      0.00087795117863
  N   -4.17441137377034      2.42520132580701      0.06456042285916
  C   -1.72857311240799      2.42081160163125     -0.11471576652949
  C   -0.73306837080280      1.42834041552849     -0.10538749870043
  N   0.51194452407481      1.83340863339141     -0.15420087158577
  C   1.71005069342434      1.28666707680238     -0.08263799175783
  C   2.84088010073991      2.10347904488065     -0.08861783851649
  C   3.95155992710561      1.25674342222551      0.04884449952529
  N   5.24632163243403      1.58229191408349      0.11280287164339
  N   3.59552183435675     -0.05467565614250      0.13360253951258
  C   2.26315156559386     -0.10792158343099      0.05432039650347
  H   0.27408609728375     -2.87562574986288     -0.11116544882495
  H   -5.01059740090593      1.87794345545112      0.17983004020541
  H   -4.26217038604242      3.42356729133120      0.05276198046021
  H   -1.50663275984737      3.47271479790083     -0.17034760568337
  H   2.82129667212347      3.17704273414362     -0.16568844727292
  H   5.92740517794369      0.84631834510146      0.17604728003504
  H   5.56186999889064      2.52582677247441     -0.00471906336609
