25
Coordinates from ORCA-job ./opt_b97-3c_parallel
  N   0.23603076238304     -4.55352827088924      0.18148259483983
  C   -0.21951653396887     -3.48678890812048      0.12305419327572
  C   -0.77131583273882     -2.19744377413782      0.05602015121360
  C   -2.12667708762153     -1.91850740602601     -0.06018752282568
  C   -2.29957548979983     -0.52985410580408     -0.09533449175335
  C   -3.58020451426063      0.01670607022177     -0.29303724742788
  N   -4.67723149742124      0.33802284530717     -0.49707798990470
  C   -1.02804160949641      0.11529711555070     -0.00346537073114
  C   -0.89210495298452      1.51145690319087      0.08838920036466
  C   -2.09633693377919      2.25965970270439      0.29475506430089
  N   -2.98120944059096      2.97344673016909      0.52407430185986
  C   0.19240707707789      2.40957506491979      0.03043962143060
  C   1.56589779494022      2.32952935108372     -0.08841221650070
  C   2.49378763885602      1.29924473359514     -0.09693344970558
  N   3.81052542108427      1.61980570993411     -0.18228468874402
  C   4.44206252738043      0.43936568904494     -0.10013572979786
  N   3.65872639385663     -0.64776199483398      0.03557866605046
  C   2.39853165859106     -0.15123676413782      0.03817125337644
  C   1.34738074681859     -1.05635827233884      0.11232500832400
  C   -0.02964909709891     -0.97508315387721      0.06469453567217
  H   -2.92041747443739     -2.64279804188034     -0.12732229466391
  H   -0.14465652938835      3.43573316978826      0.08190389798568
  H   2.04986876601973      3.29603764906356     -0.16287136746188
  H   5.51788703331780      0.36278722918319     -0.13937113818396
  H   1.72208093316095     -2.07177350091091      0.18421716740676
