25
Coordinates from ORCA-job ./opt_b97-3c_parallel
  N   0.15087666975375      4.55543625951961     -0.49493999138862
  C   -0.30111224142633      3.49780298351041     -0.33022474172061
  C   -0.81775139598412      2.20664518048177     -0.14363414821214
  C   -2.11877220431162      1.89720144826241      0.21140995627343
  C   -2.23525848087479      0.49618910469542      0.31757888072638
  C   -3.42797305814373     -0.11823352799270      0.73656391960300
  N   -4.43310465698497     -0.53885390470431      1.13780368955230
  C   -0.98740454172681     -0.10861986913453      0.02888638453245
  C   -0.83542684317215     -1.48970436874269     -0.23440544323931
  C   -2.02318309050309     -2.22665016063343     -0.51569718603619
  N   -2.92549786479933     -2.88558098884491     -0.82938789977490
  C   0.28944030190316     -2.33007348755061     -0.30786702967087
  N   1.54675930124966     -2.21774362840018      0.06586308433781
  C   2.40132319627661     -1.25246621767829      0.19734777109406
  N   3.67327169301584     -1.58028349733406      0.61869287137533
  C   4.40932093688903     -0.48958020929189      0.47372270785409
  C   3.67884040174854      0.61374967596931     -0.03915063249724
  C   2.36817670611690      0.18919110451614     -0.18415563161886
  C   1.31753213033559      1.08282115266529     -0.37919527986532
  C   -0.04571523285035      0.99411471496153     -0.21566428685763
  H   -2.91332822588706      2.60039642273363      0.39394072522694
  H   0.04465708090336     -3.34030992171998     -0.62003375709730
  H   5.45924269685556     -0.49663227456981      0.72926944965940
  H   4.05386231990391      1.60730245560820     -0.23044161533429
  H   1.65673523621508      2.09671971227609     -0.56605297592412
