25
Coordinates from ORCA-job ./opt_b97-3c_parallel
  N   3.86678714785939     -2.51955032140401     -0.00143313143286
  C   2.94117029012908     -1.82066405399194     -0.00109739632209
  C   1.78975553250939     -0.96853955563910     -0.00054818993316
  C   0.60733610294933     -1.72077805744528      0.00044668858600
  C   -0.75849104201114     -1.44953907542904      0.00130155879887
  C   -1.55110852256414     -2.64045916878484      0.00211737600589
  N   -2.12087483840994     -3.65049694562637      0.00235928319867
  C   -1.51646705378240     -0.26161147980395      0.00151098410955
  N   -2.85067884520001     -0.36720519478699      0.00245752058210
  C   -3.28998663098157      0.91490152499662      0.00233506947762
  N   -4.58985425946178      1.20818342919084      0.00335566205827
  N   -2.33695443074182      1.87227482842817      0.00136875971840
  C   -1.17453654343977      1.19336052862818      0.00080419462243
  N   -0.06479488410804      1.91391382214601     -0.00016653272878
  C   1.20913581499070      1.65411346932178     -0.00089665210496
  C   2.10897081285748      2.74786030928733     -0.00179088375025
  C   3.40709538173151      2.27713084541916     -0.00246454381911
  C   3.39978184523515      0.87015921559102     -0.00205581995509
  C   2.08881721854203      0.39859527385323     -0.00108704110768
  H   0.80501011879702     -2.78347771190014      0.00058627238273
  H   -4.88788154251019      2.16550235139161      0.00202030170816
  H   -5.26905816424705      0.47004931003685      0.00288233539116
  H   1.77553750318863      3.77151233389994     -0.00187804164404
  H   4.29898754658002      2.88475578891323     -0.00319597603639
  H   4.27902228398813      0.24757318620766     -0.00244044380547
