29
Coordinates from ORCA-job ./opt_b97-3c_parallel
  N   3.56293695754408      3.47037006790805     -0.01080539448656
  C   3.17071680152119      2.37578079630970     -0.01945856293339
  C   2.67292347384963      1.06541625341908     -0.02721786667607
  C   3.45121167246063     -0.09785109822587     -0.08937812304833
  C   2.59615180149067     -1.19260306996106     -0.06998943598280
  C   2.98274173690315     -2.53891084879271     -0.11098257088316
  N   3.26198277244834     -3.66743667323503     -0.14272627279963
  C   1.22714731968046     -0.73566474227302     -0.00170788490005
  C   0.22028257129839     -1.67281163704658      0.08550725338932
  C   -1.18043503207764     -1.73525031158518      0.12234891662949
  N   -1.65779635480935     -3.01458017901514      0.31808431360838
  C   -2.16169124433991     -0.70641983086504     -0.02629557067933
  C   -3.47787323058851     -1.24096277976768     -0.17134388932801
  N   -4.52151194214155     -1.73443703023964     -0.29491635418401
  C   -2.13716714369595      0.69597776483896     -0.03270647254416
  C   -3.34637410346751      1.42704438754243     -0.11014251517106
  C   -3.08396513133025      2.79032737940579     -0.03080668095972
  C   -1.70976666952531      2.97332844975882      0.08626506673845
  C   -1.06008742729277      1.72102752179462      0.07887350217244
  C   0.31737721631875      1.69690917545125      0.09222270302253
  C   1.29007715683953      0.71346077009058      0.02037919171389
  H   4.52582737292727     -0.13476299967423     -0.14175942188450
  H   0.64209934575539     -2.67188209185578      0.13017618626460
  H   -1.03591770739360     -3.77850028927554      0.12485112761132
  H   -2.62674890916427     -3.21523849004179      0.14275365923161
  H   -4.32644306048866      0.98876552093684     -0.19160621104405
  H   -3.82715779750128      3.57140806472693     -0.05624139866147
  H   -1.19260631476247      3.91767932298355      0.15035383954251
  H   0.74221995984153      2.69438397888768      0.14242110184183
