26
Coordinates from ORCA-job ./opt_b97-3c_parallel
  N   -3.01306805789441      3.06186623845145     -0.00047549676598
  C   -2.26092461002071      2.17945369743053     -0.00031069329034
  C   -1.30230957467625      1.11051498865167     -0.00017278301354
  C   0.00004690934910      1.62668856634555     -0.00124471102180
  C   1.30236769320414      1.11042030936902     -0.00163290924401
  C   2.26106195779085      2.17929013188801     -0.00269233842556
  N   3.01326994915921      3.06164618954340     -0.00301816283576
  C   1.87079166022160     -0.16881248357302     -0.00118231222421
  C   3.27727074438466     -0.34781523207766     -0.00191924314567
  C   3.57662116882936     -1.70321000408812     -0.00120162199368
  C   2.37680855766791     -2.41630820709899      0.00000652027015
  C   1.28705412602589     -1.52148412167124      0.00006608366817
  C   -0.00008533254594     -2.03147172035194      0.00118976253141
  C   -1.28718783417859     -1.52138919714523      0.00160598003349
  C   -2.37700650379037     -2.41613314770567      0.00288023313801
  C   -3.57676626927853     -1.70294712452987      0.00309626542566
  C   -3.27731708927496     -0.34757501917190      0.00196841442344
  C   -1.87082604784041     -0.16867542365150      0.00101743800023
  H   0.00008500142870      2.70721193304155     -0.00192168204910
  H   3.99671317976251      0.45411644579471     -0.00287742803952
  H   4.56739491180890     -2.12862546838497     -0.00152118531008
  H   2.27518832316419     -3.49085142553205      0.00079252918521
  H   -0.00012525328374     -3.11742120353119      0.00193309204179
  H   -2.27546492169109     -3.49068276460310      0.00357020830489
  H   -4.56757005322043     -2.12828929069511      0.00398525037210
  H   -3.99670001150156      0.45440796589569      0.00184238086474
