28
Coordinates from ORCA-job ./opt_b97-3c_parallel
  N   -4.53385361185243      2.01140012100665     -0.01803176743146
  C   -3.69760387704164      1.20329730731680     -0.03154475781953
  C   -2.65875678281334      0.26310095735063     -0.04048984822371
  C   -2.80959073394774     -1.11259907905041     -0.16919923354729
  C   -1.54984442797841     -1.71322034561484     -0.12198235454800
  C   -1.39743713854803     -3.08975810375496     -0.35485001265560
  N   -1.37733808066905     -4.22510121281109     -0.60103208908098
  C   -0.54480014981415     -0.69987068544009      0.02265052611388
  C   0.81116390833339     -1.00031008864703      0.19874235346694
  C   1.09363818658598     -2.34430844281734      0.60192886803565
  N   1.39663135907010     -3.38012120204489      1.02610796474269
  C   1.98824455625001     -0.23817310002070      0.04288018306887
  C   3.25540255956526     -0.83508975391165      0.00149401052198
  C   4.17253034737636      0.16985210306148     -0.31998435657006
  N   3.60180887950081      1.36885310940742     -0.44880770355611
  C   2.25983309403615      1.19595412308162     -0.22133542748489
  C   1.54551004589053      2.36363726661545     -0.13495057990141
  C   0.21883536834860      2.71306915483740      0.16118186834268
  N   0.01368770855493      4.05131940777120      0.39726036724037
  C   -0.93167310693155      1.91936285578256      0.20077443844589
  C   -1.26332631888905      0.58815462427575      0.04724693853434
  H   -3.73977879523254     -1.63678237041218     -0.30838736851749
  H   3.47174164544318     -1.87985039228093      0.14148542253562
  H   5.23690355802893      0.05050571194060     -0.45998439524559
  H   2.20150938923372      3.21165362572102     -0.29810471713520
  H   -0.91962922849066      4.41985827188880      0.35556508505658
  H   0.73963027946803      4.70418605846503      0.16471956671716
  H   -1.82425496677720      2.52609332278502      0.31698755469669
