28
Coordinates from ORCA-job ./opt_b97-3c_parallel
  N   -0.57345143856230      4.67728132649186      0.44254542696330
  C   -0.05235867026332      3.65002868218099      0.29332340294476
  C   0.59126759209126      2.41566576374888      0.12368575065310
  C   1.90596264002309      2.21221089955616     -0.21518939659397
  C   2.13893772049427      0.81278850855969     -0.31405778780473
  C   3.38010810384359      0.29359947319283     -0.71501007636555
  N   4.41254116605353     -0.07283608032859     -1.10279043164266
  C   0.94970535446204      0.10045296197278     -0.06121238335816
  C   0.94896181535648     -1.30122833081904      0.19355734672201
  C   2.18553204995049     -1.82973083009125      0.65105580131410
  N   3.11424645442402     -2.36017397485294      1.10646013316101
  C   -0.04410244418467     -2.29061475202728      0.06920951260131
  N   0.31780972613628     -3.60012754863826      0.24944420227792
  C   -1.40541970414938     -2.15727659338961     -0.33344119868534
  C   -2.33876530006706     -1.17216892694318     -0.27058743799670
  C   -3.71652466893091     -1.48099125247824     -0.52179856730983
  C   -4.49856910519180     -0.39832277416525     -0.19066998887983
  C   -3.66184953638605      0.65422463144869      0.23807905468289
  C   -2.32629371881225      0.24960665623444      0.18575485984226
  N   -1.37697144240974      1.15436246322048      0.35546004327865
  C   -0.08920267819763      1.13365800034531      0.17123236976509
  H   2.64579560907516      2.97124776592996     -0.40366358782181
  H   -0.39651954007201     -4.26306115099358      0.48781057119760
  H   1.23229819984685     -3.81167561280037      0.61247080042060
  H   -1.81146832101006     -3.10397839087079     -0.67642082831953
  H   -4.06682793412577     -2.44597608816585     -0.85468198096964
  H   -5.57452541995759     -0.35575297484876     -0.25187805718661
  H   -3.96314682673620      1.65132601623102      0.51518099910921
