31
Coordinates from ORCA-job ./opt_b97-3c_parallel
  N   5.24039191968988     -2.23308077969856      0.47051691437987
  C   4.41248073450345     -1.42576876269387      0.35473212224908
  C   3.39456071854005     -0.47251793446071      0.20713951158614
  C   3.55198408032667      0.90132428341600      0.28144334614728
  C   2.30742805524499      1.51203901389702      0.04265516096015
  C   2.14561677672782      2.90132417446577      0.17519715188489
  N   2.10424097553293      4.04921876728841      0.34764489061867
  C   1.31674299842121      0.50745223013525     -0.15246880265037
  C   -0.03252217951245      0.82878648432065     -0.41894680605326
  C   -0.20832339068256      2.10154984017506     -1.04293053055790
  N   -0.34484541084766      3.03469846042201     -1.71957327193611
  C   -1.24122222564292      0.15277455345502     -0.17242004726135
  C   -2.45509579339311      0.87267449054099     -0.00735401656990
  C   -2.70639134650811      2.24471705792640      0.09806436743432
  N   -3.10341934202931      3.32731485763274      0.25322380156276
  C   -3.51031138494187     -0.04284325075022      0.25730704696062
  N   -4.77381618296613      0.30108382932351      0.51920561477092
  C   -2.97770545660910     -1.33937254427489      0.19646865725045
  C   -1.60579405986939     -1.27866730767595     -0.04490624644441
  C   -0.88606136667773     -2.47450634195890     -0.28668655156432
  C   -1.70624827397262     -3.64401243392445     -0.36402381961550
  N   -2.35782880147350     -4.60144530062116     -0.43096281320638
  C   0.46134249716168     -2.78731238936900     -0.42574820131616
  C   1.64865808345072     -2.08965282978719     -0.25873892655617
  C   2.01304880703397     -0.77712045564595     -0.04295288951159
  H   4.46486144626150      1.42733902830741      0.50316744706873
  H   -5.04221213796106      1.26975271808858      0.55928912727358
  H   -5.45934336320600     -0.38545335413514      0.77250280482126
  H   -3.54984724637542     -2.24639091470902      0.29413910362962
  H   0.62593527188122     -3.83996245003083     -0.61251985327982
  H   2.50457929878950     -2.75520826475865     -0.27158601297134
