31
Coordinates from ORCA-job ./opt_b97-3c_parallel
  N   -5.38087358968291      2.10317510912278      0.59031838215032
  C   -4.46769742779504      1.40381978365570      0.41536946354708
  C   -3.45287604223425      0.46491097334204      0.22329876836115
  C   -3.67477162162659     -0.93043084530758      0.15458889270865
  N   -4.84972243271039     -1.53507424950660      0.34604564803824
  C   -2.44907948110114     -1.56062999158174     -0.14507950107295
  C   -1.42938641394571     -0.61730340647450     -0.22323790591191
  C   -0.07631453765542     -1.01895158095001     -0.30841412080636
  C   0.05145409280169     -2.41174907064386     -0.59706543790048
  N   0.07165718506234     -3.52712899798152     -0.91674296514688
  C   1.13990379929035     -0.34456619599640     -0.10064782369600
  C   2.35906193296294     -1.03055760494109      0.14702898524105
  C   2.62674149797941     -2.37268640871337      0.43576656746302
  N   3.02845585763544     -3.42410704675197      0.73215093180890
  C   3.41905362069879     -0.09058847168376      0.22145458692104
  N   4.69491750948792     -0.37699721013738      0.47373245774523
  C   2.87620133599675      1.19509982485541      0.00028530698879
  C   3.64555745401911      2.36023128257790     -0.01686290004762
  N   4.33309478032410      3.29955122840833     -0.02161620699011
  C   1.47465299810374      1.09136926438950     -0.17321439658445
  C   0.74361846878529      2.23791286644858     -0.45900192071856
  C   -0.59720411025937      2.58295426474180     -0.51883167411250
  N   -1.73672584886592      1.97782446872264     -0.23789897245587
  C   -2.08861854008464      0.73348591751607     -0.05314125242720
  H   -5.67594750637056     -0.99789633569029      0.54357627290259
  H   -4.95434204131387     -2.52415205690597      0.21638096098404
  H   -2.32056241167652     -2.62659892143913     -0.22769271746729
  H   5.38371977830815      0.35044487126697      0.54401157749810
  H   4.98282737441120     -1.32587337019155      0.64045982888286
  H   1.37821871914859      3.10372988759207     -0.61319540145626
  H   -0.75151615369206      3.62776628535667     -0.77365915784720
