29
Coordinates from ORCA-job ./opt_b97-3c_parallel
  N   -4.22839303114676     -2.84401236956412     -0.00151200622729
  C   -3.25710927632410     -2.21036406387023     -0.00089161230943
  C   -2.04328663019362     -1.44883002901324     -0.00019127589364
  C   -0.93213020832389     -2.29488075632902      0.00097015669072
  C   0.46118011085936     -2.16790634453276      0.00189440153999
  C   1.10955920850688     -3.44479829103237      0.00290290631040
  N   1.54241456002506     -4.52051358510817      0.00374103782569
  C   1.35434669000887     -1.08330852791773      0.00199057771398
  N   2.67333585693268     -1.38545601692116      0.00288721408368
  C   3.35412646597169     -0.23422701079409      0.00289353622540
  N   4.68602755821838     -0.19299369932287      0.00362285855955
  C   2.46879113618730      0.88939953963974      0.00200431705076
  C   2.88063555435600      2.22259579023901      0.00182065596891
  N   3.29468397951405      3.31014301955767      0.00171054164719
  C   1.16089915385089      0.36888108044970      0.00139231586130
  C   0.05974498527871      1.22857506068644      0.00048784368166
  C   -1.30393840097852      1.08919713345586     -0.00037213745082
  C   -2.12630702436346      2.26507312412361     -0.00125273115040
  C   -1.65463879905004      3.58474863244382     -0.00124940167120
  N   -1.25793045890215      4.67745429872044     -0.00141568540469
  C   -3.46815153377373      1.88200114565884     -0.00215228190712
  C   -3.53769385530058      0.49165809118527     -0.00188135204630
  C   -2.24499225482382     -0.05514488552962     -0.00078135869473
  H   -1.22651433858886     -3.33485593987636      0.00117647745148
  H   5.20504853624877     -1.05277946477394      0.00432121880250
  H   5.18401136137185      0.67819855902867      0.00374137006857
  H   0.36511716998950      2.27077625948869      0.00042207283182
  H   -4.30596219442426      2.55970307085069     -0.00293098117492
  H   -4.44880371212616     -0.08189291034276     -0.00241112108306
