27
Coordinates from ORCA-job ./opt_b97-3c_parallel
  N   1.58204163050915     -4.01198768266776      0.88244047421512
  C   1.09606709270420     -2.99991160923317      0.59425449852171
  C   0.51971154947769     -1.73253590716969      0.28482813840152
  C   -0.86541142220453     -1.73908834688223      0.11360315923186
  N   -1.49620269311676     -2.92842331027722      0.11219739554482
  C   -2.76387379167389     -2.64180439784558     -0.23316723553725
  N   -3.05195729464004     -1.35535359076358     -0.43637678542891
  C   -1.88631758168871     -0.69623496147763     -0.20511197171769
  C   -1.98079712962854      0.69263697369915     -0.16135887221071
  C   -3.31271833339400      1.15049064808194     -0.39354358205341
  N   -4.33657740197944      1.67720432896975     -0.54657427093979
  C   -1.06687241515871      1.75838268511870      0.14818778662302
  N   -1.64579023394787      2.93963692331034      0.44331997353945
  C   0.35762757817980      1.75972538619644      0.09021934098393
  C   0.91660425363673      3.06657305485319      0.19714082087874
  N   1.23375818482631      4.17654187444441      0.32653669547814
  C   1.35330911683101      0.78271544096163     -0.08896929084417
  N   2.60087832803251      1.24160637465323     -0.27083330303086
  C   3.38466940804735      0.14458343099717     -0.22478358103058
  N   4.69927632859056      0.20025206731951     -0.39791886464678
  N   2.74621825544249     -1.02964175165943      0.00715776964380
  C   1.45461514310373     -0.70294788548333      0.07572504488342
  H   -3.50893147906973     -3.41569028609108     -0.34168205216229
  H   -2.64357456205707      3.04848300927931      0.38367374874574
  H   -1.09246586139286      3.77432867057943      0.53535318777678
  H   5.24634627176052     -0.63944950376740     -0.34280406297820
  H   5.14844355801003      1.08248331745390     -0.56256820848738
