28
Coordinates from ORCA-job ./opt_b97-3c_parallel
  N   3.85264870668834      2.53994233051106     -0.01334884961062
  C   2.94709536861339      1.81516226773948     -0.00850894228971
  C   1.81042328333794      0.94048224574130     -0.00235892644587
  C   0.62380241512213      1.67945656314739      0.00036606001093
  C   -0.75322266369807      1.41868410328993      0.00708611402115
  C   -1.49761062053567      2.64362846228799      0.00573505313157
  N   -2.09164067010124      3.64010061471540      0.00351027323967
  C   -1.56010032882037      0.27007086071090      0.01359769835353
  C   -2.96254555004729      0.35892955776281      0.01806761857754
  C   -3.51438189986946     -0.92717478449980      0.02036787956311
  N   -4.83228028804848     -1.23589742980433      0.05018589913735
  C   -2.44947649247665     -1.85433637409445      0.01954727307552
  C   -1.22947248937893     -1.17267303961218      0.01499319397153
  C   -0.04746819111553     -1.90738288235222      0.01098920092748
  C   1.30705077123679     -1.65030495949485      0.00477163642030
  C   2.21267042459995     -2.73652573821539      0.00343443843838
  C   3.51617689966678     -2.25585308112668     -0.00252646796233
  C   3.47853594780093     -0.86071669759057     -0.00509721826079
  C   2.14010977291077     -0.42380910565020     -0.00093030564799
  H   0.82082987201717      2.74227528280145     -0.00312965282732
  H   -3.52552596650164      1.27752617366703      0.02071893850980
  H   -5.51925406868529     -0.51882848971704     -0.08764220745924
  H   -5.13416212400340     -2.17956293618995     -0.10030402709130
  H   -2.55119290243250     -2.92911856360759      0.02501195362759
  H   -0.24911322322106     -2.97469774517924      0.01408873291240
  H   1.91236604183608     -3.77292143389568      0.00685007235985
  H   4.41249527052766     -2.85622888866714     -0.00470982061464
  H   4.33737352657761     -0.21060536237734     -0.00965161336785
