27
Coordinates from ORCA-job ./opt_b97-3c_parallel
  N   -4.50182145364531     -1.90064377123234      0.66445427742176
  C   -3.66756268457282     -1.10617564280662      0.50736528028733
  C   -2.62550206416320     -0.19178151593540      0.30612175111058
  C   -2.73129096878293      1.17915979378707      0.26974115865777
  C   -1.45838116452493      1.73387028620810     -0.00243084765653
  C   -1.28737003597962      3.12818810374935      0.01083847764030
  N   -1.28428868680617      4.28815992414621      0.07338119570881
  C   -0.50324873025431      0.69427162214891     -0.12716183638803
  C   0.88101324893985      0.92114264197941     -0.28305555172209
  C   1.27397949158574      2.22262119732084     -0.72214320808828
  N   1.58085556603494      3.23216498628874     -1.20219478297423
  C   1.96957521976805      0.10041393706050      0.02360822562408
  N   3.15530524143688      0.71373490434811      0.24123269348167
  C   3.98537974292629     -0.20986376538450      0.76489890417117
  C   3.41520922724479     -1.47639415014791      0.84289376286201
  C   2.11553288021901     -1.36523917741156      0.32615547828668
  N   1.42753516538420     -2.43676692966251     -0.01090734174575
  C   0.20874922483059     -2.63091456267606     -0.45792035931420
  N   0.02071815564174     -3.79828599369149     -1.12527285772502
  C   -0.97279785185061     -1.88398945087041     -0.17657173033514
  C   -1.24969669381244     -0.56692896955349      0.04277109736147
  H   -3.62686510599170      1.75478713646092      0.43110823254856
  H   4.98506491968931      0.07518405988331      1.05821388954898
  H   3.88421138702714     -2.40198162299071      1.13080605291285
  H   0.77113568965710     -4.46696456032463     -1.12505006642549
  H   -0.90062951512644     -4.12055210567834     -1.35814872372010
  H   -1.84812002658723     -2.52178785344333     -0.10177770703344
