34
Coordinates from ORCA-job ./opt_b97-3c_parallel
  N   -3.42331022126005     -3.41726042648390     -0.02061305509743
  C   -2.64972774059708     -2.55370993226417     -0.06261778971376
  C   -1.62613991817302     -1.56370965448753     -0.17172133543877
  C   -0.42221035635588     -2.15418054235969     -0.59689366801231
  C   0.91837204011461     -1.80945389774493     -0.55732413789586
  C   1.75765855812151     -2.85148056175848     -1.05466455237239
  N   2.39645995894328     -3.69490178409946     -1.53117333610418
  C   1.59516469620128     -0.66671923652291     -0.05954664137849
  C   2.92764254794586     -0.71395733671226      0.38368209391442
  C   3.74294928819224     -1.80817645558466      0.69017863166523
  N   4.51450357395941     -2.61060819385428      1.02742560328087
  C   3.38701726265673      0.61713752904956      0.60765771931867
  N   4.57162576338295      0.95099796031868      1.10695285804464
  C   2.34849467920953      1.50598380617467      0.24615599484957
  C   2.48751064770843      2.87990308803983      0.46653070836565
  N   2.73500735901873      3.98606236023283      0.72863498591067
  C   1.21058040644088      0.74699011502414     -0.13410649819300
  C   0.02363702453918      1.36230632913440     -0.57735591368058
  C   0.20613633601005      2.65745632147211     -1.14551742315920
  N   0.30731412827942      3.66867819694302     -1.70631104338607
  C   -1.33508467506936      1.01705375746167     -0.40370653362128
  C   -2.31056662792113      2.01306740551453     -0.44860253632037
  C   -3.51143611381818      1.51565454934162      0.08212130985564
  N   -4.64052377007395      2.19310333088709      0.28803503310916
  C   -3.32454057685476      0.13848281745161      0.40088095862341
  C   -4.37083985962300     -0.58662359717819      0.97729590489069
  N   -5.32686652196080     -1.00492402579639      1.49286426942994
  C   -2.00912027697084     -0.23611947178598      0.03998915082928
  H   -0.57160512449552     -3.16789339091959     -0.94232377087530
  H   5.23932576057751      0.24451834177740      1.36474604891390
  H   4.81772518548286      1.91604822196104      1.24687940087364
  H   -2.13880661785928      3.03854068645403     -0.72708839567998
  H   -4.72747843754516      3.15734774386571      0.02580346907884
  H   -5.43877317060332      1.74436815423942      0.70494909197700
