32
Coordinates from ORCA-job ./opt_b97-3c_parallel
  N   4.49576836070726      3.16477409327677      0.07182010477988
  C   3.91774765566302      2.15531365676876      0.08533724763432
  C   3.17778506005247      0.96643736015023      0.08816142913213
  C   3.67866005445995     -0.30898356547062      0.29721855725532
  C   2.62544925384359     -1.23107516495622      0.22627746300424
  C   2.81999509311182     -2.58635780276113      0.53588306973025
  N   3.06247359720675     -3.67764039873428      0.85377531011327
  C   1.40099642995447     -0.53537030914870     -0.01918414812832
  C   0.19394325551067     -1.20460247916981     -0.28010941490424
  C   0.34135885880124     -2.56231600972641     -0.70220043572863
  N   0.37943823065778     -3.63211629265476     -1.14957892604378
  C   -1.16408531617065     -0.82587457632123     -0.18319107436837
  C   -2.17408332973498     -1.79384588996289     -0.20979845222267
  C   -3.41548110468261     -1.20517618284291      0.07690288563352
  N   -4.59370679119847     -1.83430074265742      0.18566269011231
  C   -3.20721247970277      0.18327240349505      0.25559652213791
  C   -4.22956329054574      1.10241000252850      0.48765166592047
  N   -5.10670929433762      1.84403411412301      0.68235219239751
  C   -1.82602428020408      0.47921602505094      0.06471816438065
  C   -1.44505746218768      1.79747809603778     -0.01192301717577
  C   -0.26460145674315      2.50044907068617     -0.28730156385985
  N   -0.43590588403323      3.83964121338070     -0.54793366983726
  C   1.06937023176486      2.07172693806505     -0.29030116613830
  C   1.74857909381523      0.89608217207245     -0.07254695164502
  H   4.70408318366740     -0.55928827279373      0.51062739645854
  H   -2.01795128984890     -2.84817664480235     -0.35907916295356
  H   -5.43814899123206     -1.31747536303417      0.35348172813132
  H   -4.68314314336668     -2.80536111507545     -0.04683623689914
  H   -2.29105821058996      2.46416155100587      0.12389235150930
  H   0.35276167854412      4.45651934166272     -0.46890017120184
  H   -1.32542984119393      4.26364999742409     -0.35559784858130
  H   1.75567293961083      2.90349924778826     -0.41344051304470
