26
Coordinates from ORCA-job ./opt_b97-3c_parallel
  N   -4.33181327794735      2.44879235302308      1.23206600218704
  C   -3.59410936937606      1.61207700976760      0.90735841209110
  C   -2.70446375995968      0.59971843123465      0.52661125945731
  C   -2.95860576334713     -0.77435885548228      0.53431262985121
  C   -1.88417845053224     -1.47561704913156     -0.02720251308805
  C   -1.88564073839170     -2.87461416245660     -0.12018167101231
  N   -1.98388674611939     -4.03156225539921     -0.17248042758802
  C   -0.84266051989812     -0.54156048941589     -0.32816282564097
  C   0.49384794237501     -0.86247615645617     -0.50340318300771
  C   0.82202574651318     -2.22910660059021     -0.74918226757881
  N   1.20199954223358     -3.29491011209630     -1.00383210721911
  C   1.65901159444100     -0.06644029294243     -0.27149191005108
  C   2.86304469424616     -0.61052228478577      0.10170791815069
  C   3.68370825886819      0.48248778891794      0.52847271089303
  N   4.90505885240149      0.38364214134277      1.04965149277797
  N   3.09660556708389      1.67594735621206      0.36264192887859
  C   1.87907549315242      1.43195553867148     -0.16373182873300
  N   1.20879141521298      2.41628107396737     -0.69591394907279
  C   -0.03888954271358      2.51007699220046     -1.10193916612298
  N   -1.12543488296272      1.97364113036868     -0.60431036570283
  C   -1.44387646118443      0.81811167815622     -0.09133616268857
  H   -3.85825140943113     -1.23767091711480      0.90440805781709
  H   3.11695693199106     -1.65619981749041      0.14784367406360
  H   5.38153354452527     -0.49580421911295      1.12022365578258
  H   5.39083719607364      1.22069302412626      1.32127679945311
  H   -0.21734539144321      3.28447699824975     -1.84282356400029
