31
Coordinates from ORCA-job ./opt_b97-3c_parallel
  N   -4.74593402244010      2.74836303004367      1.33311586365221
  C   -4.15384443832246      1.80547357878901      1.00021741112212
  C   -3.41938390549860      0.68608884530038      0.59193482118149
  C   -3.89159318382517     -0.60732415294882      0.40512890309717
  C   -2.86897054915417     -1.43137055889393     -0.11284259848414
  C   -2.98815208883393     -2.80194053279498     -0.37387881963377
  N   -3.11482680182076     -3.93620325013809     -0.59106873493903
  C   -1.67858993674008     -0.67479080979052     -0.22496771466037
  N   -0.52225660496826     -1.24638044475655     -0.43057402543232
  C   0.72003484712141     -0.86331287653287     -0.24578100069285
  C   1.71551396612827     -1.86834965201755     -0.21350094761108
  C   1.54468540806822     -3.23274531144337     -0.45722250278498
  N   1.51927497162735     -4.37990683718431     -0.64585479033325
  C   2.92984742735328     -1.31022306162883      0.24835023036685
  N   4.05747573839472     -1.97054080440659      0.47810463244820
  C   2.73378502641530      0.08610848748598      0.44935506277051
  C   3.77605718622512      0.87138938059717      0.95150045517291
  N   4.71653109022044      1.37773857391383      1.41294092179030
  C   1.41593494136304      0.43419988790123      0.08356449519605
  C   1.01951698475086      1.74794637207566     -0.17789793013345
  C   2.02468448057758      2.74579849751304     -0.21794276832539
  N   2.77941622835583      3.62181795793143     -0.33703173370925
  C   -0.27964701171922      2.26228362257130     -0.52384365467694
  N   -0.34128707137108      3.39310333604808     -1.25077295147460
  N   -1.45868507370190      1.85847584188147     -0.07353464401174
  C   -2.05811954195404      0.73885060189559      0.13634587617443
  H   -4.89576186823801     -0.93692327993777      0.61506794588425
  H   4.86692889836865     -1.49754408146095      0.84326121728739
  H   4.11574897138215     -2.96140745378581      0.31716702035040
  H   -1.21537285455505      3.88952485038535     -1.27170974961198
  H   0.49082365518979      3.88103671009100     -1.53369150868404
