30
Coordinates from ORCA-job ./opt_b97-3c_parallel
  N   -1.03042319916276     -4.58888143511022      0.61735890119437
  C   -0.75658500228870     -3.47418376813271      0.45298641038125
  C   -0.31950186783213     -2.12098523693232      0.30049232750420
  C   1.06146854900665     -1.99136397328732      0.42681099027265
  C   2.00180720536832     -0.98641923631106      0.17144930030248
  C   3.32179026045301     -1.53464066495778      0.22878784588573
  N   4.34930738648374     -2.05992476051763      0.34576363967989
  C   1.90709041514688      0.39896400302604     -0.04980573968084
  C   3.02678220263123      1.20573819118256     -0.36893819342663
  C   4.25328996853426      0.83052328635142     -0.93692142325165
  N   5.26973704415170      0.63083736345114     -1.46353736628231
  C   2.72078168534120      2.55935879048076     -0.08228121412544
  C   1.44213931095931      2.63804341148102      0.41026988554454
  C   0.83944528351238      1.34997365566693      0.36089428367395
  C   -0.54117729026527      1.23804486045610      0.49907029867549
  C   -1.16452516539523      2.39228776349081      1.06683297100772
  N   -1.64334898899494      3.29670105624662      1.61270030509422
  C   -1.45832691855709      0.23810349814685      0.08004253594554
  C   -2.80081548896296      0.51005141718443     -0.23213295008123
  C   -3.49626679592537      1.71046770941942     -0.39489102625857
  N   -4.19134535895692      2.61946420429481     -0.60473412997819
  C   -3.40818469264973     -0.75644360395306     -0.52432749482721
  N   -4.65992417959680     -0.94977933818206     -0.92860202291562
  N   -2.54460238610509     -1.76317216232210     -0.34977482228302
  C   -1.35342711953481     -1.22159055237267     -0.02273842777843
  H   1.53157259747317     -2.93204728375374      0.67521524316376
  H   3.39379781391348      3.38327163429985     -0.25309843000780
  H   0.92702938070830      3.54490074345361      0.67458315849170
  H   -4.98126551375869     -1.88374015746291     -1.11211114689360
  H   -5.29499215269837     -0.18089624763618     -1.04857464922699
