29
Coordinates from ORCA-job ./opt_b97-3c_parallel
  N   -4.24493494434362     -2.71997861238702      0.63039751954613
  C   -3.42586044481774     -1.91735495920596      0.43313053956573
  C   -2.50860240825073     -0.88524670395301      0.23053363705598
  C   -1.18458245795976     -1.00426327353701     -0.24555922232327
  N   -0.74998939151324     -2.14225618582367     -0.73484825135065
  C   0.42033402536598     -2.66612853349523     -0.98857572697844
  N   1.60736392454129     -2.46986551394945     -0.44154054009774
  C   2.18780271854969     -1.38746527830873      0.01300835648971
  C   3.44459291772580     -1.44490447444245      0.62453298708904
  C   4.00351590133363     -0.16252151192273      0.61174039735662
  N   5.21469877399248      0.18684472220065      1.06523791858963
  C   3.07790737436252      0.75338798897234      0.02614488789641
  C   1.90677844578424      0.08773534232441     -0.27152476688805
  C   0.70075968486131      0.77731752712808     -0.54347348199700
  C   0.90742269286055      2.15129857876045     -0.86004023675364
  N   1.15908576496657      3.23690427640154     -1.18411550378067
  C   -0.62691061304121      0.37713373426766     -0.34899763961985
  C   -1.69899298550273      1.25757226227316     -0.06679681472801
  C   -1.75608479799738      2.65020547428341      0.02637708202083
  N   -1.97691232594769      3.78528046579904      0.16488473108375
  C   -2.82907613247670      0.48745657694758      0.33434188204139
  N   -3.99177525641178      0.99013394928766      0.74048803350374
  H   0.38169887027335     -3.53022374981095     -1.64697829778061
  H   3.94070916767864     -2.36356190265178      0.88879361926133
  H   5.82037412811787     -0.48166112271695      1.50331843985933
  H   5.56359434664619      1.11992791373977      0.94887918182964
  H   3.23357952877718      1.81720383948051     -0.04690029153764
  H   -4.14603343732984      1.98379030673781      0.74796281062220
  H   -4.74452711894438      0.38533976760070      1.01739374682344
