33
Coordinates from ORCA-job ./opt_b97-3c_parallel
  N   -1.83592688091531      4.48768829324171      0.79413708892107
  C   -1.88350504392041      3.35002102919492      0.56338406995521
  C   -1.99456085892074      1.96950589137928      0.33140433494162
  C   -3.10841932235115      1.22753557766647      0.68450538060520
  C   -2.83684320257097     -0.14365477867791      0.47237141202376
  C   -3.74849351699515     -1.17650676615640      0.73778746347497
  N   -4.50716094624482     -2.01631707927966      1.00098382678236
  C   -1.50738465243669     -0.29089929944007      0.03394419214753
  C   -1.04415979980362     -1.48755684435509     -0.58707354692866
  C   -2.02146020740830     -2.21142523251113     -1.31335087647212
  N   -2.73890279797289     -2.83801650911233     -1.98037158320211
  C   0.20848454370454     -2.11703458218504     -0.54486002021957
  N   0.36451293159390     -3.28830872523890     -1.20712316967456
  C   1.34382726950269     -1.70759397325012      0.25029532658592
  C   2.07165603971603     -2.80220428651332      0.78900391097167
  N   2.66240175402949     -3.70169743474077      1.22724001052320
  C   1.93667292446768     -0.46341467343549      0.41203482274997
  C   3.24154304344968     -0.33761320960585      0.93847422541444
  C   3.74951384800853      0.91182022869711      0.59100347217528
  N   4.97793559932214      1.38882959188587      0.84414755427543
  C   2.73804617177159      1.63134571577375     -0.11467111959994
  C   1.58560238707813      0.86783405091146     -0.17153172541574
  C   0.33275936917630      1.48136584338684     -0.41319876604579
  C   0.43179873803330      2.78676422481254     -0.97936818802266
  N   0.58186187093125      3.79291231361781     -1.53690495450580
  C   -0.94102617171199      1.05688191718696     -0.04340223023163
  H   -4.01822675922221      1.62433238079584      1.10190353244541
  H   -0.44100473162557     -3.78306654089643     -1.55282159905315
  H   1.20329991489259     -3.82695454016228     -1.08937629761481
  H   3.80111543802320     -1.13556456679464      1.39641093990121
  H   5.61772040411060      0.88900991360503      1.43309009681985
  H   5.24417796867142      2.31243718591031      0.55864846179257
  H   2.82135018086494      2.65704628909823     -0.43511532583608
