30
Coordinates from ORCA-job ./opt_b97-3c_parallel
  N   -4.23596548497534      2.83127459124396      0.37848406554300
  C   -3.24548916626076      2.24329362746498      0.23804921040360
  C   -2.02957524606804      1.51079367330432      0.07419591594393
  C   -0.94740825836926      2.34428946223626     -0.14765661168789
  C   0.44551087388255      2.21095011545609     -0.24018320200214
  C   1.08508744086713      3.47898113726999     -0.41926366903748
  N   1.50279334700206      4.54772961171447     -0.58815373957879
  C   1.34339572361475      1.14468739932724     -0.09162305283859
  N   2.64605184978292      1.48869017709328      0.00845193803756
  C   3.34668435064148      0.36334456751991      0.15532249941132
  N   4.66213242742760      0.35970841968406      0.34256545437889
  C   2.50678863770582     -0.79960955001534      0.09987660593857
  C   3.04523217743468     -2.06989610623927      0.32266639367104
  N   3.66478059195807     -3.02418838246498      0.56657134630402
  C   1.19467595857903     -0.33419048085652     -0.06861408899357
  C   0.09559787761081     -1.19947052690438     -0.29206010231883
  C   0.45501715461613     -2.52389121824877     -0.69140037040141
  N   0.78152637010058     -3.55766785196386     -1.10371644162613
  C   -1.28958697048904     -1.04798222103103     -0.14932414864474
  N   -2.01055336571665     -2.18799003712523     -0.19566118364116
  C   -3.28517838984725     -1.86410420030154      0.07915167333506
  N   -4.22924500288794     -2.80498680099516      0.12938686418370
  C   -3.44813138251871     -0.47007904127958      0.28489199909237
  C   -2.20154135431379      0.10276408774817      0.12641346209240
  H   -1.24554208013442      3.38115741492798     -0.22054676878827
  H   5.16682897275096     -0.50011338040854      0.46727228701290
  H   5.15791953937108      1.23254442555506      0.38095225384529
  H   -3.97616774858733     -3.76144277396748     -0.04685260810615
  H   -5.17902006112825     -2.59109938520032      0.36720294072011
  H   -4.37216038044886      0.05043869655629      0.47049203875140
