23
Coordinates from ORCA-job ./opt_b97-3c_parallel
  N   -0.00838233866923      3.51844896357563      0.01516428248533
  C   0.12390035212687      2.36723967128272      0.01148217296775
  C   0.24467188739716      0.94148249106545      0.00729752003956
  C   1.55393243970823      0.46925812574713      0.00615758472337
  N   2.53295902506696      1.39822748087916      0.00551023503469
  C   3.71053475404118      0.74343791920431     -0.00435870164389
  C   3.56724874876478     -0.63684126343429     -0.00992551987323
  C   2.19337006509136     -0.91771712979958     -0.00217387849107
  N   1.80332076372734     -2.17777521027353     -0.00027263365391
  C   0.62601763400604     -2.77165541786932      0.00632529075577
  C   -0.70672245789723     -2.37192159009196      0.00517094191199
  C   -1.39241906874475     -1.16541869102500      0.00120392547783
  N   -2.74359092629765     -1.21205052974822     -0.00202083611867
  C   -3.12272868035638      0.07859004887100     -0.00204857043317
  N   -4.40026494137270      0.45819467522136     -0.00552792549281
  N   -2.11709289320870      0.99587572041544      0.00162564204151
  C   -1.00077942730581      0.26567888489876      0.00352465425799
  H   4.63316745138739      1.30583246986898     -0.00666249725006
  H   4.33497656390145     -1.39148229648909     -0.01624995369144
  H   0.72724762526621     -3.85420919313316      0.01109784744800
  H   -1.39484333822571     -3.20876387719470      0.00674858362948
  H   -5.13009472889644     -0.22904686400918     -0.00718376732861
  H   -4.62975241301037      1.43442433183811     -0.00426935179644
