28
Coordinates from ORCA-job ./opt_b97-3c_parallel
  N   3.12246293731337      3.67451920691965      0.19890708729721
  C   2.44921827672634      2.73364392767374      0.12319795338427
  C   1.53906166698987      1.63454693878169      0.02685621324922
  C   0.20906230926805      2.05358747379446     -0.12078832114335
  C   -1.05971159630308      1.47061855615094     -0.14153888171586
  C   -2.04892080975669      2.47461111229375     -0.38776816611984
  N   -2.76920121026607      3.34395594338875     -0.65407098627523
  C   -1.53635096001708      0.15057552325153      0.00885640638816
  C   -2.89694770754296     -0.18227776933823      0.15918670363304
  C   -3.99713119677553      0.64788787020805      0.43063953366035
  N   -4.96574729857629      1.22675405482478      0.70679624955914
  C   -3.06491421369342     -1.59297486785975      0.10076677568921
  C   -1.84110141413697     -2.18472135260094     -0.08923889722205
  C   -1.56952662667909     -3.55753013211564     -0.18175290272178
  N   -1.34953179222104     -4.69475705195228     -0.26206779499627
  C   -0.81757096897117     -1.15938785647346     -0.10700585278233
  N   0.40870740525072     -1.56592803065420     -0.17923472688883
  C   1.61100282178627     -1.00845094824970     -0.09706461299563
  C   2.73109484013556     -1.82541051012402     -0.08563844310252
  C   3.85029651429672     -0.97335090643890      0.07903407113495
  N   5.13588870433344     -1.31645274903620      0.15650794385518
  N   3.48799282642135      0.32771441360578      0.16034165631754
  C   2.15007576538371      0.37775923665085      0.05643226493909
  H   0.15012439852843      3.12823536688064     -0.22109160794649
  H   -4.01061418751893     -2.09661728490908      0.20889248104288
  H   2.70860084852073     -2.89883739270884     -0.17020484743183
  H   5.43665886281911     -2.26989082107211      0.08368602147021
  H   5.82832710388462     -0.59646832599126      0.26965726232155
