28
Coordinates from ORCA-job ./opt_b97-3c_parallel
  N   -3.97957641645970     -3.02075456869563     -0.76756481743109
  C   -3.18123038387946     -2.21997984749219     -0.51126977480169
  C   -2.09698716513783     -1.35075819841675     -0.17532851706768
  C   -0.97552094003246     -2.05442815795788      0.30123764206702
  C   0.37236550392834     -1.76062047194088      0.40259948963487
  C   1.10232899794722     -2.85779101166965      0.95715001066022
  N   1.61906351438625     -3.74433900167943      1.49810937202273
  C   1.15412657304530     -0.63415487396742      0.02274276144706
  C   2.52380420320501     -0.76222047190203     -0.30656697079557
  C   3.24485630239295     -1.93431598455344     -0.58980392281528
  N   3.89146047106546     -2.85144845836910     -0.88822505078781
  C   3.09417091474556      0.51691089278539     -0.44448581745386
  C   2.13430466912572      1.46931903430282     -0.14489115106256
  C   2.38638271202705      2.84422855399158     -0.28860524673709
  N   2.67557530662051      3.95537177201442     -0.46191056868373
  C   0.88081899145343      0.80244793522391      0.11306131506955
  C   -0.28526109247652      1.51562742168996      0.40106243285974
  C   -0.09559141115569      2.82260023040702      0.94894926149692
  N   -0.02388918916497      3.83843554720986      1.50368806825367
  C   -1.64754907296524      1.21232946438996      0.17259291304520
  C   -2.61668475223840      2.22129051604165      0.12927597765058
  C   -3.79109695022780      1.64200214500697     -0.37950391964705
  N   -3.64984019828710      0.33916918385966     -0.61374521662114
  C   -2.36823964608867      0.00769664568128     -0.27641847637644
  H   -1.20710223826381     -3.07828838743994      0.55937548197035
  H   4.10256502060770      0.71940779323935     -0.76187658303325
  H   -2.46898198666724      3.25778564843653      0.38040888603353
  H   -4.72928962090433      2.13988568690426     -0.57194962729717
