29
Coordinates from ORCA-job ./opt_b97-3c_parallel
  N   -4.68754104205773     -2.74325726994745      0.90475875870493
  C   -3.90119719517102     -1.93941334655604      0.60718775707688
  C   -3.02545120090370     -0.90430948770952      0.27385416060145
  C   -1.70973411940117     -1.02317136920164     -0.21648243310232
  N   -1.20273108719969     -2.16303658802582     -0.59091318790660
  C   -0.00110840828578     -2.53318486277338     -0.98071988487757
  N   1.20122628869523     -2.16347262818945     -0.59272557160889
  C   1.70911781461074     -1.02379899480370     -0.21888331193515
  C   3.02553519119243     -0.90546086224193      0.26966773225010
  C   3.90140382856911     -1.94092942739660      0.60154932290761
  N   4.68788912499124     -2.74510176752664      0.89784994414045
  C   3.40957156543553      0.45899259916640      0.22065022918196
  N   4.59873723151193      0.94007262665042      0.55307786496148
  C   2.31064050702833      1.24008185760884     -0.24626088439920
  C   2.35378276531785      2.63290172255775     -0.33483092501729
  N   2.49340684947137      3.78648396188670     -0.38654176644698
  C   1.19981453756365      0.40103279965601     -0.43463747743571
  N   -0.00022475187210      0.91009367492738     -0.58231833787609
  C   -1.20026302143315      0.40145835438610     -0.43316906299610
  C   -2.31059684780287      1.24088444622331     -0.24359724065425
  C   -2.35345494258370      2.63368920938513     -0.33253004514810
  N   -2.49283485965935      3.78728881626276     -0.38455227178986
  C   -3.40914813848716      0.46023953613121      0.22496504418222
  N   -4.59773124640594      0.94177191375697      0.55881527686063
  H   -0.00175560248124     -3.40696671277724     -1.62693389685211
  H   4.80127508273600      1.92129344039266      0.46346035684459
  H   5.32373428592260      0.33275356412683      0.89542972509510
  H   -5.32247533160946      0.33476531032916      0.90225239463574
  H   -4.80010258489336      1.92302134080259      0.46914977200295
