27
Coordinates from ORCA-job ./opt_b97-3c_parallel
  N   -4.58707027542718      1.80646845559940     -0.00854956104203
  C   -3.63988077409255      1.12946116150078      0.00547972037392
  C   -2.54922948189593      0.25711747721046      0.01751731335022
  C   -2.68451441313348     -1.15749535677198      0.02404311684729
  N   -3.85597301493041     -1.82054934986308      0.06762448186037
  C   -1.40100006043435     -1.70384730752263      0.02117472100725
  C   -0.43763195289509     -0.67864966734344      0.01256233037746
  C   0.93731464363308     -0.98999307672044      0.00598588238053
  C   1.18023210446095     -2.40330765942897      0.00488764672829
  N   1.37000778214203     -3.54742667957923      0.00263172837981
  C   2.12730023414620     -0.24069396770263      0.00014929624682
  C   3.39357109959048     -0.85784225454672     -0.00071648660717
  C   4.34068134921645      0.15749358707511     -0.00596962192437
  N   3.78808709009613      1.38296526905067     -0.00947467693217
  C   2.43963912586281      1.21086773775948     -0.00580010027993
  C   1.69207972496737      2.37672051358747     -0.01144952891597
  C   0.34264681844576      2.68617399247842     -0.01010037315608
  C   -0.82860367820834      1.94932782764225     -0.00070753708903
  C   -1.17535869710321      0.60509248021456      0.01062794516916
  H   -3.87675623736624     -2.80941614082689     -0.09826823398107
  H   -4.71512810144755     -1.32182594222721     -0.08237219301340
  H   -1.18419634502851     -2.75816633218388      0.02913013519171
  H   3.58630519346299     -1.91677582454951      0.00288445075168
  H   5.41470523823561      0.04289406187184     -0.00736103663781
  H   2.34502722582909      3.24107434248742     -0.01782191122375
  H   0.15942311864517      3.75371084056526     -0.01674614201770
  H   -1.70692802057132      2.58614464542344     -0.00066069134404
