30
Coordinates from ORCA-job ./opt_b97-3c_parallel
  N   3.94588007979146      3.21274287307721     -1.51099429798946
  C   3.46854756037235      2.21611676863994     -1.15169255616456
  C   2.88623022372011      1.01837468532538     -0.71921994607408
  C   3.48867322542993     -0.22957200730489     -0.65485352410318
  C   2.61797869451402     -1.16282611468196     -0.05443799568953
  C   2.95916698422952     -2.51966232454264      0.03776918818216
  N   3.32995793934360     -3.62099583002487      0.06953532512120
  C   1.38165727334699     -0.52152360027197      0.23161035785408
  C   0.19247341122937     -1.17621186245404      0.55639448021998
  C   0.29352556339330     -2.51431995633681      1.03847224793546
  N   0.26690642541054     -3.57571062729706      1.50592626915724
  C   -1.14991214828829     -0.78822599630463      0.30992998629649
  C   -2.15985502397749     -1.71719931522216      0.12278268866385
  C   -3.31709847665115     -1.07059230464464     -0.38419175708827
  N   -4.45822703309349     -1.67046095460859     -0.72462083924934
  C   -3.06392072188319      0.31683817333818     -0.47279444772882
  C   -4.02431147029039      1.27222675775957     -0.80509019400957
  N   -4.87592478437360      2.00824612705162     -1.10035773631213
  C   -1.75733260066805      0.56159346270681      0.02300394676805
  N   -1.39330603712742      1.76095685424617      0.36830341752021
  C   -0.22114111816475      2.21102755057007      0.81380014059762
  N   -0.27807355619391      3.14758788492931      1.77777486778696
  N   0.97538664320551      1.99800259754782      0.27864797146554
  C   1.59567959682108      0.92433200142976     -0.10589133698598
  H   4.47790132200412     -0.46708955507596     -1.00955916349260
  H   -2.05835630580278     -2.78306440039777      0.24193296344703
  H   -5.23169341227415     -1.13690488786637     -1.08210946949922
  H   -4.60045988164728     -2.65066816797756     -0.56568430127172
  H   0.53825169867464      3.71149988603998      1.94073869786657
  H   -1.17765431666960      3.52909217366651      2.01422957649291
