28
Coordinates from ORCA-job ./opt_b97-3c_parallel
  N   5.42248039105400     -0.81609310771838     -0.01506448330604
  C   4.36035419845533     -0.34531858369645     -0.03436540642857
  C   3.07073929117741      0.20805733000050     -0.05173431438228
  C   2.77699390517580      1.55328934477158     -0.24791342739768
  C   1.39152038409904      1.71877808869101     -0.15471686597262
  C   0.79277002739876      2.96203278176541     -0.42428827010170
  N   0.39463804424826      4.01580161065173     -0.70627719686828
  C   0.77092211957005      0.44612868403812      0.06591152880220
  C   -0.62810680865192      0.33017446855002      0.24013755815248
  C   -1.22987581798790      1.51516602534190      0.77030323204500
  N   -1.66810606007816      2.39537642106430      1.38600928172092
  C   -1.52793501037528     -0.72346698121458      0.02775947704215
  C   -2.92934854786372     -0.49711629859160     -0.17677041260807
  C   -3.63118775793557      0.71151858417472     -0.31905490140496
  N   -4.30604768190501      1.64037411006098     -0.49581590497428
  C   -3.56806340049891     -1.72623125734255     -0.40784789685778
  C   -2.62776052331622     -2.73446925945254     -0.31259038460344
  C   -1.35187884021697     -2.18572590414224     -0.06292578519250
  C   -0.30300109972683     -3.06250579028215      0.17962179370607
  C   1.05418837854467     -2.94910915061772      0.42768833875439
  C   1.94427009287247     -1.89383466849429      0.36467032522661
  C   1.85573224821469     -0.52997949755060      0.11464536014145
  H   3.48462402577699      2.33764280280303     -0.45403415128002
  H   -4.61625017798468     -1.83372705332793     -0.63157531530177
  H   -2.82263734340962     -3.79169207009724     -0.39805643406247
  H   -0.63188826509279     -4.09589876592045      0.15684461822568
  H   1.53493590228569     -3.90005872287248      0.61834082078652
  H   2.97237690446798     -2.21755810609341      0.48431611094025
