27
Coordinates from ORCA-job ./opt_b97-3c_parallel
  N   -5.39844783693699     -0.87538620346869      0.24386308315154
  C   -4.34432291482079     -0.38952790037290      0.19544056970530
  C   -3.06513380044829      0.18505296600959      0.13365872780749
  C   -2.79572867684063      1.55038932127707      0.23061222393275
  C   -1.42505924426283      1.74563887839413      0.06957186409227
  C   -0.85739245214697      3.02167164923228      0.23145297782800
  N   -0.49478547702232      4.10878878799691      0.41828451935438
  C   -0.77780138798603      0.47247591049941     -0.08962190138777
  C   0.61201337264853      0.36577888641963     -0.24638282283857
  C   1.24249608672530      1.54031327410777     -0.76196564690131
  N   1.74089427287207      2.40407399646537     -1.35492599640548
  C   1.51473074703552     -0.69511553878561     -0.00831278874887
  C   2.89824402672858     -0.48800078844408      0.23949048505271
  C   3.61650154310042      0.69524993715177      0.46553908004103
  N   4.28772177755198      1.61198091316010      0.70730889744175
  C   3.47398688026584     -1.76616510371598      0.39062602351611
  N   2.59238525454252     -2.73971542263629      0.20025460202552
  C   1.37572705977183     -2.15804702143035     -0.01075783144584
  C   0.34537671860019     -3.04732171678337     -0.28223742427916
  C   -1.02497372903423     -2.94257642279989     -0.43694925788841
  C   -1.92414141749254     -1.90301034442114     -0.28180084088969
  C   -1.84845823557849     -0.53480759837620     -0.04752805806498
  H   -3.51670050244970      2.32838589752946      0.41439109865879
  H   4.50449814515624     -1.96915453577797      0.63750276046696
  H   0.72382585247731     -4.06093471422248     -0.33014603894270
  H   -1.50569908941177     -3.89244816031091     -0.63248629349948
  H   -2.95224862054432     -2.24453884359706     -0.33070811458275
