31
Coordinates from ORCA-job ./opt_b97-3c_parallel
  N   5.43607920019337      0.74446370311465      0.05467644312434
  C   4.42425658721335      0.17026007879463      0.04620367197048
  C   3.18107199658340     -0.47455408581340      0.03201730522864
  C   2.97222521752802     -1.84727647317037      0.01167413042611
  C   1.59265414712819     -2.08828634038033     -0.00795142676199
  C   1.00188537275513     -3.35924174532981     -0.03177784673729
  N   0.50925307070056     -4.41230640340915     -0.05171707965878
  C   0.88843007025480     -0.84663849772813     -0.00047744262022
  C   -0.49696472551698     -0.83583121641417     -0.01608740985722
  C   -1.47968423592888      0.13458446841739     -0.01328417260909
  C   -2.84755161720249     -0.24017171526289     -0.02579396119512
  C   -3.38202934151899     -1.52954408413015     -0.03180776465436
  N   -3.90416610641897     -2.57041206012477     -0.03209549231503
  C   -3.65935227218706      0.92832321220117     -0.00976903327142
  N   -5.00628078688439      0.92293805886633     -0.05164221654901
  C   -2.80913736934019      2.03509776230061      0.00985035894749
  C   -1.46699692988873      1.61355070874109      0.00837963998846
  C   -0.46515195072301      2.57126018978404      0.02130175208910
  C   0.93108665202291      2.60535294082363      0.02712650724129
  N   1.47725781301018      3.88247162778321      0.08882901384297
  C   1.89150260347267      1.57938003415760      0.03825644572467
  C   1.90798797503228      0.20485801009845      0.02589258587237
  H   3.73987017013416     -2.60250231667179      0.00996293010149
  H   -0.91175911611456     -1.83935280177226     -0.03427191088025
  H   -5.51587055498538      1.76198855537562      0.15298878298857
  H   -5.49799057065842      0.05735713711742      0.08770616520586
  H   -3.12630507036528      3.06617177027869      0.01910906594887
  H   -0.88938027210507      3.57107744445690      0.03986570347427
  H   0.90210036627152      4.64150274944041     -0.23128717661071
  H   2.43893940478756      3.98007928879126     -0.18635139347607
  H   2.89979289435029      1.98089136646399      0.06465715182173
