31
Coordinates from ORCA-job ./opt_b97-3c_parallel
  N   3.72226883738423      3.47215281318590     -0.17989409155919
  C   2.91287670938249      2.64389038597159     -0.10755203998891
  C   1.92900801833820      1.60991995030388     -0.02503760962818
  C   0.64462599210536      2.12425370458514      0.09708673067009
  C   -0.68458712489491      1.66114383910814      0.13483871662915
  C   -1.56341842454087      2.77364079999173      0.32682078997802
  N   -2.18934806875483      3.72806683573561      0.53563228382508
  C   -1.30411164754289      0.40561605425175      0.02537215447021
  C   -2.70903030394946      0.24772371951573     -0.08510888503707
  C   -3.74530130054986      1.16625590942940     -0.28893303023243
  N   -4.73212839340236      1.74884605978998     -0.49138459621955
  C   -3.03019906524930     -1.13319038667236     -0.05144842490440
  N   -4.25369289905130     -1.64802316861774     -0.14363195287849
  C   -1.82454629554215     -1.85908249381346      0.08311310047531
  C   -1.77905520463537     -3.25351306952015      0.14300342540865
  N   -1.80875280103439     -4.41619168877615      0.18920664864187
  C   -0.73196002096261     -0.95796885587123      0.10051875975148
  C   0.54757670397607     -1.48730087186985      0.17111909392906
  C   1.85102389721615     -1.02918670615321      0.09578656291323
  N   2.81099702711148     -1.98180930467794      0.10557643016990
  C   3.99184677611018     -1.34522666361861     -0.04325741548326
  N   5.13340468725100     -2.03940669349169     -0.07769590429231
  C   3.83589307610047      0.05790199711361     -0.14494550165172
  C   2.47857877568477      0.30737396581673     -0.05382854828263
  H   0.66806115399339      3.20345391874885      0.16044238157511
  H   -4.39879095415694     -2.64186066324872     -0.13280381686677
  H   -5.05275609995737     -1.04799923038102     -0.25887692986610
  H   0.54881255560957     -2.56852882841594      0.25201242564123
  H   5.10066700796606     -3.04012016127846     -0.00027425994778
  H   6.02091503106641     -1.59306850432591     -0.20805188577308
  H   4.61848940712888      0.78969279578447     -0.25250268846674
