29
Coordinates from ORCA-job ./opt_b97-3c_parallel
  N   -0.19715903057869      4.67916943771030     -0.45323352418862
  C   0.27870891910681      3.62914099166656     -0.31269910437754
  C   0.89521553925742      2.37999292984515     -0.14869366795188
  C   2.22926209772371      2.16567073106110      0.16544082585840
  C   2.47018149431854      0.78539376665960      0.27008869020327
  C   3.70819779042121      0.27562940337676      0.69059422495907
  N   4.73887271998914     -0.07944462271800      1.09399652208772
  C   1.26424609993754      0.06883158440504      0.03378060513501
  C   1.25325533958468     -1.31087845137505     -0.21346730048140
  C   2.51121227329539     -1.86167245836812     -0.58641121345094
  N   3.45277217576753     -2.40795645028942     -0.99305058393022
  C   0.22696135596462     -2.30997596993731     -0.15557764632477
  N   0.63315594916816     -3.60994191922823     -0.31368260506088
  C   -1.13541281406173     -2.18728290306081      0.14958769568906
  C   -2.08509021811984     -1.18653781479442      0.14641219794926
  C   -3.43878954144278     -1.46692552625071      0.34445745383396
  C   -4.13587650229295     -0.27129221488075      0.10578247583651
  N   -5.45861796572913     -0.06200496492043      0.13662678339402
  N   -3.30896743692052      0.75734647372585     -0.21414233273152
  C   -2.05452005903660      0.28137913668870     -0.17946237839702
  N   -1.08624866228855      1.15486671113942     -0.33546253848909
  C   0.20692974363452      1.12485189184674     -0.17090059678177
  H   2.96755030575557      2.93080796267606      0.33795266372653
  H   -0.05251613815348     -4.29645716274594     -0.56580262880844
  H   1.57259151806063     -3.81125160696671     -0.60894615080580
  H   -1.57812732720233     -3.15503273907637      0.36363487866045
  H   -3.86126014138712     -2.43256239103145      0.57446724655325
  H   -5.79266799205895      0.87865187397819      0.02232290161788
  H   -6.08813062091392     -0.74759958563661      0.50829175627592
