24
Coordinates from ORCA-job ./opt_b97-3c_parallel
  N   -3.86309606202030     -2.53139452226521      0.00024990021244
  C   -2.93029849932787     -1.84179415314408      0.00017547116286
  C   -1.77685417076359     -0.99494674865054      0.00004410301969
  C   -0.59665996361779     -1.73856795338600      0.00003460666860
  C   0.77244503309849     -1.46324285644447     -0.00014084467614
  C   1.56927726638167     -2.65027144555904     -0.00012713588993
  N   2.14582894805352     -3.65648040448374      0.00002307579014
  C   1.52096356835307     -0.27343991921929     -0.00034903549474
  N   2.85342438495065     -0.36569702449389     -0.00057486325781
  C   3.27946698832002      0.92054932969610     -0.00064700341806
  N   4.57104425754946      1.23006480317637     -0.00088732136865
  N   2.31623847884394      1.87331825397921     -0.00045871341742
  C   1.16316337523808      1.19166675896524     -0.00027747240510
  N   0.04964915584186      1.90351842430012     -0.00009398677536
  C   -1.21918555032039      1.64574184639579     -0.00002949734672
  N   -2.05112459245070      2.73265001467582      0.00003787773279
  C   -3.29535521342068      2.26675345099690      0.00001542056931
  C   -3.37625045583291      0.86089510844694     -0.00003789745142
  C   -2.07833737775835      0.37959035845720     -0.00006276686689
  H   -0.78878824655765     -2.80258429814101      0.00016831137453
  H   5.26143086065038      0.50142860301229     -0.00101370660413
  H   4.85549819004467      2.19232793808435     -0.00092283368292
  H   -4.13296028309865      2.95033520509536      0.00003299114105
  H   -4.27848463955695      0.27244229170560     -0.00003762251612
