27
Coordinates from ORCA-job ./opt_b97-3c_parallel
  N   -3.01313195710254     -3.46320526938135     -0.00004821673997
  C   -2.26555077320984     -2.57707279169461      0.00015993924545
  C   -1.30082995310845     -1.51329443125585      0.00014636820935
  C   -0.00754809444142     -2.04171686784254      0.00066510423230
  C   1.28947836198670     -1.52255124282886      0.00015051864137
  C   2.24655215096395     -2.59321295454258      0.00041043099855
  N   2.98773249289845     -3.48470766740582      0.00065362989849
  C   1.85507906680144     -0.24188829734065     -0.00064090275769
  C   3.26473507310574     -0.09768819581794     -0.00144491436176
  C   3.60142384689440      1.24784949200278     -0.00169223174673
  C   2.42636145785267      1.99226582161658     -0.00091502139410
  C   1.30279346709922      1.12950358608875     -0.00033546966306
  C   0.00577384912295      1.66815138427252      0.00029250107142
  C   0.01093284582446      3.10725859246567      0.00107893632315
  N   0.01514515904758      4.26617351609368      0.00219786476714
  C   -1.29506414598129      1.13877162853085      0.00000114765734
  C   -2.41238663753523      2.00961424294561     -0.00023454500221
  C   -3.59278549094712      1.27369369969718     -0.00091738503781
  C   -3.26581263002315     -0.07423833356377     -0.00097697047462
  C   -1.85722945182016     -0.22860527992926     -0.00041315036745
  H   -0.01140902477006     -3.12195081170818      0.00124839359474
  H   3.96121682533667     -0.91918741984705     -0.00179263550875
  H   4.60144556692888      1.65005053245590     -0.00234153276553
  H   2.37374839985652      3.06732705587816     -0.00087028399393
  H   -2.35204306957782      3.08426674358344     -0.00004557980574
  H   -4.58988351472698      1.68308908126470     -0.00131079024522
  H   -3.96817799457555     -0.89071242293737     -0.00134015697470
