29
Coordinates from ORCA-job ./opt_b97-3c_parallel
  N   1.71208767306767      4.57477526935854      0.28651965328691
  C   1.89821456854010      3.43334790190515      0.16950395591443
  C   2.08154960639777      2.04888215756582      0.04325891738028
  C   3.24874148366584      1.41212250116806     -0.33832539396778
  C   3.01688946144496      0.02177092997597     -0.37234286844923
  C   4.00279789531013     -0.88074376440273     -0.80543417961562
  N   4.85674762810938     -1.54692738950740     -1.22479477988912
  C   1.67415004923456     -0.24458607445586     -0.00622926699806
  C   1.19719306108912     -1.53409289712797      0.32017643447999
  C   2.17886879575728     -2.53606763049472      0.57743010537664
  N   2.90534383369219     -3.39064881661894      0.87550762877801
  C   -0.09383169063773     -2.06824944669262      0.48166107982547
  N   -1.31628348092518     -1.65535503393160      0.21788967608314
  C   -1.91606048316402     -0.50853768005776      0.08622855906717
  C   -3.30947768353321     -0.46427564085238     -0.21122147648269
  C   -4.14721311520353     -1.54820528889626     -0.48124241126094
  N   -4.91788312477719     -2.38765260974405     -0.71359545181110
  C   -3.76087928459040      0.86556316386665     -0.08811796163333
  N   -5.01487096338721      1.28613024056347     -0.27681911791768
  C   -2.64940913868041      1.67713499308666      0.26783917856274
  C   -1.50330305471412      0.90303830883989      0.33737691254797
  C   -0.24616243472748      1.49947660678586      0.42487092431815
  C   1.04105402938139      1.06623469750150      0.20909617906606
  H   4.18090948105440      1.88948654794386     -0.58852576465561
  H   -0.07879650375600     -3.10677121976970      0.79618442834372
  H   -5.27875877549093      2.23899250751774     -0.10984692166955
  H   -5.74283399642454      0.63473272585088     -0.51411310914801
  H   -2.68347256107939      2.74761542659093      0.40235324418561
  H   -0.30839166884206      2.57379298824727      0.56495455801966
