28
Coordinates from ORCA-job ./opt_b97-3c_parallel
  N   4.19768338405037     -3.40165789654813     -0.12932758750752
  C   3.73471675020327     -2.33675159015403     -0.09407710870653
  C   3.15422964348849     -1.05926416025613     -0.05131731110737
  C   3.85692698472929      0.14653231446732     -0.02901337471351
  C   2.92596787804306      1.18806838717535      0.01759838803187
  C   3.23603648770517      2.55643690716673      0.04852139285080
  N   3.46707923461922      3.69489202489380      0.07453655275666
  C   1.60285784953066      0.64676478199680      0.02239498851293
  C   0.50651468268941      1.49197212789113      0.04452571804845
  C   -0.87358845442309      1.36554091263441      0.01989434378134
  C   -1.62641285783317      2.56080756561677      0.00276334820935
  C   -2.97485678163045      2.27165405368690     -0.05096154900016
  C   -3.13211572653954      0.87462120113663     -0.05517914164599
  C   -4.41623695370347      0.31115413721524     -0.14420481690569
  N   -5.52713756547293     -0.01564536788188     -0.23707498532974
  C   -1.84524850858083      0.25039966969252     -0.00547601384727
  C   -1.66446650499003     -1.13692346337742      0.05139831760034
  C   -2.84261217970991     -1.94741746983055      0.14104796218876
  N   -3.70645220352578     -2.71452799048612      0.24121356160422
  C   -0.53541086131904     -1.98165799463899      0.04366797335238
  C   0.83855782220001     -1.84106090087585     -0.00476513402162
  C   1.74873585999424     -0.79484231054178     -0.01848821434615
  H   4.92766367377148      0.25554003548782     -0.04483305504086
  H   0.80476547834138      2.53503367570155      0.06809790870460
  H   -1.19069446102280      3.54707338364814      0.01907427322227
  H   -3.78924941711045      2.97548491529281     -0.09029875158686
  H   -0.82416754738988     -3.02290047843523      0.07616700823831
  H   1.33081813018536     -2.80742205947786     -0.02459114584297
