27
Coordinates from ORCA-job ./opt_b97-3c_parallel
  N   -3.65858003964680     -3.42683263118033     -0.00260222747874
  C   -3.21959661877695     -2.35090669256349     -0.00180060573056
  C   -2.68767119698596     -1.05339387304379     -0.00067102653383
  C   -3.45125104226146      0.12777734565768      0.00021125482449
  C   -2.59031536833221      1.21008684130657      0.00119762140691
  C   -2.96006540696813      2.56171611284384      0.00229821709645
  N   -3.21692658024833      3.69567034982623      0.00326303536462
  C   -1.22005760759787      0.73689260843704      0.00099743452252
  C   -0.21600243428397      1.66584316939073      0.00225249239888
  C   1.20116249122755      1.73444319660298      0.00279308744295
  N   1.66654802011266      3.01156301685189      0.00529665898369
  C   2.17220662144592      0.69904430609018      0.00111985731324
  C   3.51363446791244      1.18016550198227      0.00151246860476
  N   4.52985674492020      1.74267770180444      0.00233566663713
  C   2.09719055454420     -0.70501927874993     -0.00083542051988
  N   3.27958756617815     -1.35809284032446     -0.00205419934890
  C   2.95215451064539     -2.66332758023645     -0.00348148093203
  N   1.64720735494146     -2.94510298662671     -0.00327546781714
  C   1.03349994101306     -1.72840114663077     -0.00164310945067
  C   -0.34736467722891     -1.72518896325935     -0.00131625371462
  C   -1.30577346624896     -0.73009838946203     -0.00031013337546
  H   -4.52702893809504      0.17610203113664      0.00013645339204
  H   -0.63370419034240      2.66750665608226      0.00330520861031
  H   1.03383097616611      3.78835621680047      0.00502917884358
  H   2.65086542249534      3.21353175872587      0.00474268740298
  H   3.70668866767346     -3.43519922902186     -0.00470048362441
  H   -0.74528886035894     -2.73376209623991     -0.00223788281832
