27
Coordinates from ORCA-job ./opt_b97-3c_parallel
  N   0.28795144055685      4.35092075551120     -1.84584794012130
  C   0.61712667196708      3.37175367113471     -1.31425343834254
  C   1.04880097224042      2.19454830850693     -0.68977623119905
  C   2.26583996828418      2.03151053529071     -0.01031671786073
  C   2.32188932743260      0.78687269744386      0.61457848814070
  C   3.40821220639670      0.35757550533497      1.38733444620307
  N   4.31657883117573      0.07295416561344      2.05479937034721
  C   1.15032030509344      0.04793883477312      0.23399271840541
  C   1.08953060100407     -1.31863177048116      0.14910114963856
  C   2.15755077768973     -2.12665156602659      0.61000782337966
  N   2.97362808280258     -2.89303565317715      0.92124052948144
  C   0.06300047374525     -2.10889639399836     -0.55914018409516
  N   0.53194159039010     -3.04763865634147     -1.39744521876595
  N   -1.22075792483961     -2.08181838020966     -0.36954129306631
  C   -2.07769034389226     -1.17165780748512      0.02309880215360
  N   -3.28040829476591     -1.48225117864574      0.49314112284699
  C   -3.90656470679294     -0.27450880895757      0.56592485366309
  N   -5.13788384379683     -0.16749002005842      1.04250126560223
  N   -3.22898467767497      0.81876277814852      0.12290137630493
  C   -2.02603625490314      0.33611192435326     -0.18741568603445
  N   -1.06051626612615      1.13248772212573     -0.59383060511370
  C   0.23554912584778      1.05591043502233     -0.45107134967574
  H   3.04281386232226      2.77626387177816      0.04777159119934
  H   -0.11369281977024     -3.73448949258017     -1.74829994540682
  H   1.51513980181424     -3.24226418166729     -1.46590339835897
  H   -5.62255204863054     -0.98351812968133      1.36968436934583
  H   -5.58826591397059      0.72968430487170      1.06395786552925
