36
Coordinates from ORCA-job ./opt_b97-3c_parallel
  N   5.13502187256424      0.28381849733805     -1.97941370947315
  C   4.17161707545937     -0.02727988015929     -1.40364487711114
  C   3.10834160168817     -0.62772807891047     -0.72711711584316
  C   3.24040524870384     -1.95584423199260     -0.25576728206995
  N   4.30117261093665     -2.73752295916859     -0.45863116245028
  C   2.06311346923269     -2.31429501237549      0.44093139284867
  C   1.15740305592611     -1.26572582674077      0.37819913478447
  C   -0.22660957588854     -1.50478453921074      0.55000321847692
  C   -0.53262792794392     -2.78494012346199      1.09002007828609
  N   -0.73013415694957     -3.80130351362813      1.61510119180721
  C   -1.32494563352526     -0.76375814794350      0.09280749857678
  C   -2.54146715518884     -1.35863359753012     -0.33509999846225
  C   -2.83060582753328     -2.69515773533978     -0.62341416656251
  N   -3.18158695489805     -3.76260426712432     -0.92602020251593
  C   -3.45376276930056     -0.32891911882869     -0.65180452995993
  N   -4.66530303633681     -0.48053410923836     -1.17377069117344
  C   -2.83321686507616      0.92739463564984     -0.35766466942004
  C   -3.48870473920402      2.14371511000572     -0.56698820536971
  N   -4.10929025099550      3.09774934970519     -0.80807267539747
  C   -1.52866321971053      0.69177647314703      0.08753777272869
  C   -0.75527249511117      1.68827856357987      0.74291612957001
  C   -1.49566850872793      2.64889797730141      1.47342611175724
  N   -2.02410274328548      3.44447744759658      2.13677501923661
  C   0.62589888780953      1.92610883531952      0.71113642980726
  N   1.10830067690691      2.97543165706724      1.40891914937730
  C   1.61090020884093      1.24648571545694     -0.11787784011681
  C   2.53073560188018      2.16277371022944     -0.69108962310681
  N   3.21714912698992      2.99073321779154     -1.13110365369977
  C   1.87171506789063     -0.10509769225008     -0.23811789077521
  H   4.36117890722055     -3.65261213827233     -0.05296939651133
  H   5.08574059696823     -2.40594864720855     -0.99423892035087
  H   1.84350489828099     -3.30372927048667      0.80534130631439
  H   -5.03001116750124     -1.39763695645380     -1.36771209935311
  H   -5.23693837085463      0.31738733655172     -1.39169893291400
  H   2.06099380490918      3.26819045566021      1.28438580786015
  H   0.47774037892375      3.65232205862078      1.80685406030652
