29
Coordinates from ORCA-job ./opt_b97-3c_parallel
  N   4.13221627656042     -3.20705478575197     -0.04954828473210
  C   3.22026343188349     -2.49093225600715     -0.03979758079589
  C   2.00946845277803     -1.72901154048628      0.01240854175198
  C   0.89619936569964     -2.53894178121058      0.25196127331104
  C   -0.48295251918712     -2.37108394523313      0.20761695252245
  C   -1.18428901837670     -3.61053199990072      0.34730313946365
  N   -1.66815271876625     -4.65472991818800      0.48834666466339
  C   -1.33283199808520     -1.26170602567225     -0.00490567164353
  N   -2.63110533855998     -1.55002965722911     -0.18075023410845
  C   -3.30358708998548     -0.38774289350304     -0.24289491823630
  N   -4.60597810095890     -0.33942717758068     -0.49067104567892
  C   -2.43765077904434      0.72688281596495     -0.02462888962819
  C   -2.91071477622911      2.03924017037297     -0.10561588036331
  N   -3.45439447438296      3.05996344132940     -0.22930405177639
  C   -1.13882361913558      0.20006515140209      0.10559035962793
  C   -0.00979287139242      1.01369426211360      0.35640784909935
  C   -0.32718550020298      2.24641087754031      0.99834069165640
  N   -0.58724902113734      3.15993648369739      1.66547029368076
  C   1.34342536664763      0.83802814974382      0.04083623431534
  C   2.24831810808403      1.92442880147222     -0.12114047741186
  C   2.01288749460206      3.30647129408710     -0.12806232624264
  N   1.90982314733807      4.46202732066490     -0.18800184549089
  C   3.48308470754910      1.36045122052123     -0.48719413623474
  N   3.45192789757273      0.02953198226513     -0.49644120435927
  C   2.18864789599400     -0.35448041887303     -0.20217346602889
  H   1.17442808095338     -3.56867321165789      0.42606751656561
  H   -5.09847673020627      0.53602907925045     -0.52514523509101
  H   -5.11301249326906     -1.19336710978675     -0.64455440962877
  H   4.37484174255713      1.90693422165500     -0.75247116340677
