28
Coordinates from ORCA-job ./opt_b97-3c_parallel
  N   4.98107345359982      1.28082328424354      0.52954286505294
  C   3.90016981970621      0.89632579711450      0.36183325668217
  C   2.52197670923104      0.57363955129349      0.14385509373484
  C   1.75872422082138      1.71102208634546     -0.13928779280897
  C   0.40516510884589      2.00525940207805     -0.24815590525568
  C   0.17640043106315      3.39774066476908     -0.49261684628434
  N   0.09187726116470      4.53162663229190     -0.71955578021718
  C   -0.78686704705633      1.26558902975144     -0.06531118168083
  N   -1.90708006243728      1.99999968903503      0.02803242103106
  C   -2.93949763117901      1.15561519000311      0.19024711385900
  N   -4.17992406200234      1.59071457759437      0.38553427300240
  C   -2.51384966958339     -0.20321350579332      0.13511650663468
  C   -3.41635944505396     -1.24784904905568      0.34924607770056
  N   -4.28615045354583     -1.98633919829412      0.57699697609145
  C   -1.11133813404346     -0.17559851465553     -0.02886888629980
  C   -0.33837931336527     -1.33503934764635     -0.24792074510170
  C   -1.09758317952206     -2.47838527650936     -0.64933680629681
  N   -1.66275092418366     -3.40781918017647     -1.05159399495895
  C   1.02867510884160     -1.61161083792467     -0.11181143988144
  C   1.51678831478949     -2.93211908080211     -0.12484324192842
  C   2.86126854584978     -2.87104348760802      0.21691178016571
  N   3.29120202154765     -1.60863615089539      0.40304398909000
  C   2.23524614623017     -0.79412055536314      0.20221961210068
  H   2.37373914804399      2.59375177865593     -0.24300572972321
  H   -4.35716412195310      2.57883059667682      0.42096670580036
  H   -4.94251021150924      0.94989651331308      0.51613322727246
  H   0.93812176498042     -3.82109536411286     -0.30451007175840
  H   3.54169189232061     -3.70066758432777      0.33568296017747
