28
Coordinates from ORCA-job ./opt_b97-3c_parallel
  N   4.56418024340516      2.47091371556798     -0.22731379993993
  C   3.65332933541431      1.75767421258362     -0.15349637055952
  C   2.45156193002268      0.98497197640314     -0.06004085375129
  C   1.31299401671344      1.79194886078581      0.06788419559589
  C   -0.07373286191207      1.62011269722157      0.11478654647900
  C   -0.70801955354757      2.89046267262141      0.29505428199213
  N   -1.13283583052296      3.95331497215908      0.48239019071635
  C   -0.93670031205873      0.50796316119493      0.02471790364393
  C   -2.33858006526182      0.62567153103293     -0.04534456875315
  C   -3.18180051254404      1.73582706442068     -0.18491218303520
  N   -4.04561554980186      2.50122070479026     -0.32994154561878
  C   -2.94162439062897     -0.67230352311918     -0.02429267766862
  N   -4.24744977405384     -0.91051251836106     -0.09142668796657
  C   -1.91166793243970     -1.62133833842552      0.06923425030624
  C   -2.12023093892441     -3.00223205003516      0.11122461243549
  N   -2.38596426268000     -4.13364572412300      0.14223483394503
  C   -0.65222595710709     -0.96035438452175      0.07367722067340
  N   0.40684747593029     -1.72697613437717      0.11154755032444
  C   1.70781519037610     -1.55826482493567      0.04782452605991
  C   2.55741386776398     -2.67853980961029      0.04328451494272
  C   3.85407544039766     -2.20002779161831     -0.09205312907681
  N   3.91018622823576     -0.85037032081643     -0.16813841656411
  C   2.64603761507248     -0.39506478583377     -0.08322130722886
  H   1.58120776592167      2.83699078492427      0.13087229786547
  H   -4.90602232126713     -0.15402784897130     -0.17021679352921
  H   -4.60030783697021     -1.85132088249579     -0.08023159854461
  H   2.21986937478547     -3.69833085719438      0.11540600550926
  H   4.76560640568279     -2.77681100466703     -0.13946951405382
