29
Coordinates from ORCA-job ./opt_b97-3c_parallel
  N   0.37509067342894      4.72697733474216     -0.34714944555751
  C   -0.13188800603130      3.68935841804406     -0.21155043160608
  C   -0.71042140437323      2.42044388484018     -0.06823430135914
  C   -2.02127527469808      2.15489758019190      0.26818932519423
  C   -2.19081394411589      0.75235765942375      0.32732347591847
  C   -3.39883722621670      0.15513616034031      0.72334975428412
  N   -4.40514797318037     -0.28311105467969      1.10452857208193
  C   -0.96222675614316      0.10890689023168      0.04454367733165
  C   -0.89806088319586     -1.29223275230550     -0.23610720862961
  C   -2.10237144572607     -1.84743548145885     -0.74552134633168
  N   -3.00041450054493     -2.39045009065728     -1.24573329672354
  C   0.11645400955127     -2.25180185795609     -0.08944367526772
  N   -0.20195719561780     -3.57425769489868     -0.28959180436231
  C   1.45930986689201     -2.09347305217253      0.36640836271294
  C   2.39705199998254     -1.10939188885213      0.31003024858599
  C   3.76709401782405     -1.42036868278749      0.61691448044336
  C   4.55983283110380     -0.35218561320448      0.27902136986211
  C   3.73167682339865      0.68594567584889     -0.20848176475819
  C   2.39741590746100      0.28117284563884     -0.18523370057537
  C   1.37312863753970      1.20252820589635     -0.37264607019114
  C   0.01309542484687      1.17086181131879     -0.16700854767980
  H   -2.78800828735068      2.88132513512373      0.47608778754975
  H   0.53771172014025     -4.19722569082256     -0.55814487469822
  H   -1.09915435429471     -3.79950384096875     -0.68645375221155
  H   1.85616531308772     -3.03016838569602      0.74519356003785
  H   4.09952585391506     -2.37622347837992      0.99071978373672
  H   5.63324427105424     -0.30335066813305      0.37087768687090
  H   4.06381314999873      1.66928989206982     -0.50459755490075
  H   1.74363081766461      2.19286727046485     -0.61776737105712
