31
Coordinates from ORCA-job ./opt_b97-3c_parallel
  N   -5.15927919906747      0.87221485072298      1.40222902553864
  C   -4.18422856537931      0.35817115644677      1.02202752079815
  C   -3.03869273687627     -0.28882017092404      0.56739962157802
  C   -2.97787676564709     -1.65187486896493      0.21637315328626
  N   -3.96123046153455     -2.54442658209699      0.38725721533508
  C   -1.70032359493194     -1.92403250463034     -0.32626646187873
  C   -0.92171933859609     -0.77493061453492     -0.29916003778244
  C   0.47317272685485     -0.82021668791111     -0.54679072209729
  C   0.90823057265824     -2.05859084741041     -1.09662821513618
  N   1.20179349145897     -3.05524737704702     -1.61515458948565
  C   1.49639404544395      0.06584962418623     -0.18045468252702
  C   2.83152728158911     -0.29299785820031      0.07282004085408
  C   3.46896279157987     -1.53169475061163      0.14823912203885
  N   4.12221601965790     -2.48704068916120      0.27985379136050
  C   3.48066798394754      0.90670920559842      0.50555502560088
  N   4.73322931366783      0.98403473691941      0.94761660485908
  N   2.68844220081979      1.98723548518884      0.43757573605480
  C   1.48366436230189      1.55620554807834      0.01962543231370
  N   0.60329278000134      2.45527512745022     -0.34459681865663
  C   -0.69421268616284      2.51622304514907     -0.47546152170849
  N   -1.14904024018577      3.63720788790466     -1.09405472339374
  C   -1.71398014882996      1.68238497757561      0.07845315418698
  C   -1.80437382148023      0.32931028647907      0.18713808369512
  H   -3.88364013471866     -3.47493535037263      0.02278525489638
  H   -4.85064330844089     -2.26113094046815      0.75800524309356
  H   -1.35394140236749     -2.90237088148819     -0.61433756233058
  H   5.31507803501640      0.16689289688618      0.99970118636255
  H   5.08743364829510      1.86469809701441      1.27414025713683
  H   -0.46773735115592      4.26835961108783     -1.47828742036457
  H   -2.09295844926761      3.69066567790402     -1.42871889417793
  H   -2.60844873373190      2.22603827788851      0.36285045283579
