27
Coordinates from ORCA-job ./opt_b97-3c_parallel
  N   -4.52509841939135      1.74891651667337     -0.67090515846834
  C   -3.65045717967162      0.99847776348090     -0.52316556522689
  C   -2.58463615687666      0.10843209578918     -0.33848841924829
  C   -2.63347570037181     -1.27821657946478     -0.35332196139675
  C   -1.36688880778209     -1.79815091865005     -0.03021611516696
  C   -1.13651526883108     -3.18253814221875     -0.05046428028052
  N   -1.06061216067809     -4.34011755663126     -0.11662290687795
  C   -0.44764884275728     -0.72287833100535      0.14037974834641
  C   0.93062686958341     -0.87485028979392      0.31419186724986
  C   1.38642172593477     -2.14911605609072      0.77183768473749
  N   1.72882713407928     -3.14338534396531      1.25952833202586
  C   1.98878485377504      0.00786581515004      0.00785979795465
  N   3.20894340380174     -0.54407371715588     -0.11807942852358
  C   4.03383951436900      0.40475496330681     -0.62727914592184
  C   3.39511797657234      1.61175861026583     -0.82081523698298
  C   2.05689175759255      1.44106510040960     -0.37850027964543
  C   1.25526127226572      2.52046551807596     -0.11976360948007
  C   -0.04229674979964      2.60370033946877      0.44757571618721
  N   -0.35766714196457      3.74534196608237      1.11004420887360
  N   -1.04611329309924      1.77717029702617      0.26733334750873
  C   -1.25259794449118      0.52113466622080     -0.01297696142941
  H   -3.49990420653804     -1.87861290631692     -0.57380972572142
  H   5.06468334325523      0.16273372025163     -0.83632227314617
  H   3.82689162852880      2.53924689210416     -1.16082713793191
  H   1.69216721727619      3.48343263453587     -0.36340273709283
  H   -1.32904737608743      3.94122815574859      1.28113995354016
  H   0.30341671730151      4.49410431200627      1.19926691571631
