28
Coordinates from ORCA-job ./opt_b97-3c_parallel
  N   4.94091760286759      1.72986463341271      0.02949059566959
  C   3.98217700789168      1.06763023080832      0.02252258156280
  C   2.87549489459923      0.21994218327773      0.01292253226851
  C   2.96698686631167     -1.18695295021436      0.00705633301189
  N   4.10374860029697     -1.89473841831826      0.01949612418491
  C   1.65766019670523     -1.71417587626173     -0.00552563968252
  C   0.73062325273380     -0.67998099755777     -0.00813676082340
  C   -0.66213864037403     -0.94232280292539     -0.02158435104862
  C   -0.97662802243398     -2.33904642902796     -0.03337753683806
  N   -1.12544048160216     -3.48939029325746     -0.04123086204391
  C   -1.79797159172937     -0.13044761835489     -0.02716654209728
  N   -2.98881827086683     -0.76800758850150     -0.03733983520698
  C   -3.95272452569781      0.17204850017140     -0.02793289234680
  N   -5.24357698181547     -0.19134167409104     -0.05844957915589
  C   -3.42399024931158      1.47963054319087     -0.01254834767327
  C   -2.04219850618887      1.36176208460730     -0.01095760301493
  N   -1.30763149043373      2.47402286606836     -0.00130969248066
  C   -0.02098337076556      2.69479704179233      0.00240423211587
  C   1.15699726726231      1.92546617187749      0.00565570177092
  C   1.49840593321769      0.59457864451544      0.00423094946507
  H   4.09226037163878     -2.89604112492790     -0.02067778213694
  H   4.99601261125662     -1.43422678681701     -0.00017886385538
  H   1.41950120460696     -2.76401125832613     -0.01173446944548
  H   -5.46502157933944     -1.16708799860107      0.03408703888604
  H   -5.97383699280450      0.47792562825704      0.09214461038879
  H   -3.95396061573973      2.41712142521928     -0.00814984020997
  H   0.20295355398283      3.75983573912544      0.00642801858709
  H   2.02894559172810      2.57128864107049      0.01329278674953
