30
Coordinates from ORCA-job ./opt_b97-3c_parallel
  N   -0.21428955784331     -4.34303640264321      0.09225336686717
  C   0.39971601146332     -3.35705455905431      0.05494119985969
  C   1.14071117410717     -2.16631272615591      0.01312776005963
  C   2.52624392652223     -2.09703655180318     -0.09986234621435
  C   2.90973383610961     -0.75420719280043     -0.10947673390892
  C   4.25591760350143     -0.39873418203509     -0.30112454346540
  N   5.38798569972603     -0.23081430573732     -0.50009558473233
  C   1.74525794024480      0.07426548253482     -0.00321032614262
  C   1.81158709463075      1.47122069024438      0.10745435597336
  C   3.10619177228056      2.04613838381717      0.31514518092267
  N   4.08132536186284      2.63159502938013      0.54328724023214
  C   0.85530185715540      2.50492005575029      0.06578121490830
  C   -0.51481105590237      2.62202554204161     -0.04582109675922
  C   -1.60867291848064      1.76299095589388     -0.05621893112881
  C   -2.90950598325989      2.27532197801805     -0.12981788302058
  C   -3.83626194665546      1.22693581591538     -0.05317870113113
  N   -5.17588803759024      1.31126784540300     -0.06296478749096
  C   -3.09997045920636      0.01387980683896      0.07120409091378
  C   -3.71542274097605     -1.23728103117146      0.15819586637374
  N   -4.30177842393991     -2.24022699431803      0.22586813024777
  C   -1.71322178671416      0.30383703722791      0.06344817029174
  C   -0.78425298395792     -0.71856485009525      0.11451716995692
  C   0.59611287786735     -0.84505278293925      0.04804021432596
  H   3.19745847978664     -2.93469240423865     -0.18271823613407
  H   1.32971178581436      3.47524041150393      0.12191500434204
  H   -0.81925829909614      3.66132020848981     -0.10745554336173
  H   -3.15410145942358      3.32265771818504     -0.21315455309001
  H   -5.63592382416299      2.17858736230086     -0.26483948015120
  H   -5.73633032809613      0.47769104078126     -0.08513428421832
  H   -1.26523137626727     -1.68973915593443      0.18185568907474
