28
Coordinates from ORCA-job ./opt_b97-3c_parallel
  N   4.34240397356825      3.29452640328487      0.75098876045151
  C   3.75422234353141      2.31160833226131      0.56111489575549
  C   3.05490567973538      1.11680170512504      0.33984691809312
  C   3.57382509681117     -0.15926329351505      0.37218444675526
  C   2.56866121913549     -1.09167634213766      0.01878026911879
  C   2.87212470805488     -2.46298374600367      0.01421184705418
  N   3.26505550743002     -3.55562033296771      0.05275548052364
  C   1.34335530368045     -0.41238664455772     -0.19168865564501
  C   0.09989575409503     -1.04796884581002     -0.30178756538489
  C   0.11396857857016     -2.45625727341249     -0.53860384329875
  N   0.10855990669808     -3.57846558746319     -0.82964307288972
  C   -1.21771505119994     -0.56253878636097     -0.10865272556076
  N   -2.16466392801308     -1.49760203418652      0.10512945234878
  C   -3.33369765745328     -0.86571087891691      0.29718577018854
  N   -4.45106444344293     -1.53159459068904      0.57809616317683
  C   -3.18690438414155      0.54540768555801      0.15757959004268
  C   -4.22342254248412      1.47708614982103      0.22654839475761
  N   -5.11973216483837      2.21634412292075      0.29151516388102
  C   -1.82630507928699      0.78197958304941     -0.10933910761405
  C   -1.37765598486187      2.03528363879556     -0.51862636375290
  C   -0.12150604347192      2.56318498444721     -0.73708684736146
  N   1.08525079858244      2.16202350428155     -0.37769936716025
  C   1.67324154981202      1.05081081346151     -0.06203166452994
  H   4.58844794580651     -0.42709583969997      0.61464956127401
  H   -5.32377863625030     -1.05726814523270      0.72193692761430
  H   -4.42708675173157     -2.53496947560982      0.62319002383965
  H   -2.17335604849833      2.75435048715821     -0.67974835164981
  H   -0.11774628324073      3.56648886449537     -1.15170778312348
