28
Coordinates from ORCA-job ./opt_b97-3c_parallel
  N   3.88747789532133     -2.93813087973990      0.12853684732206
  C   3.07532468547574     -2.11150373586854      0.08066358226319
  C   2.07048387282382     -1.09248119556434      0.02475036733691
  C   0.79583268927706     -1.63833934053201     -0.04355221864626
  C   -0.54608035922774     -1.19445593917300     -0.07182235034239
  C   -1.40426211383072     -2.33728708183759     -0.17100505065086
  N   -2.00689614128541     -3.32233348020940     -0.27990229906684
  C   -1.18512005666410      0.04745039049363     -0.02299550322661
  C   -2.60004798554560      0.19673103068164      0.02273616975878
  C   -3.64654638689814     -0.72520061396189      0.13729676004268
  N   -4.65223305221815     -1.30044522416427      0.24888547109429
  C   -2.92317457348350      1.57737630645381     -0.00199643311939
  N   -4.16425391623625      2.07475337248732      0.03036239680505
  C   -1.71925228294233      2.30228439271700     -0.06848782220650
  C   -0.63830167393854      1.42702385943134     -0.06776932385775
  C   0.64385071014706      1.98317921027091     -0.09830854825946
  C   1.94131144841802      1.53859913741757     -0.05158096885522
  N   2.90177263605403      2.52018003242980     -0.05341102977611
  C   4.07890298044667      1.89924742362207      0.03435794482393
  C   3.95404235156112      0.50303624785260      0.09154907300358
  C   2.58978545960771      0.21943209843621      0.03734063781879
  H   0.83651751667958     -2.71801966919224     -0.07080445770171
  H   -4.95587128920724      1.46014408812945      0.11815457509139
  H   -4.33048311503719      3.06241153299384      0.06452367591740
  H   -1.63683552559119      3.37695212858552     -0.10464665143136
  H   0.62704173043167      3.06610142124929     -0.14576549026707
  H   4.99830766103767      2.46619343722164      0.05500127668461
  H   4.75357022512472     -0.21562788653043      0.15749578384495
