34
Coordinates from ORCA-job ./opt_b97-3c_parallel
  N   5.40043233336813      1.69909016024345      0.77434627632199
  C   4.50426427097104      0.98609314810651      0.55664216935763
  C   3.45709083829679      0.10484987823678      0.29772942424288
  C   3.61673155091430     -1.28360378974740      0.09882288148171
  N   4.76816470569459     -1.95950604561113      0.21837389478421
  C   2.35924416128187     -1.83011165467683     -0.21691331817449
  C   1.38419787331305     -0.83301574119503     -0.19546197284253
  C   0.01332542942755     -1.16139626655961     -0.32921041515481
  C   -0.17444974286169     -2.51244239985298     -0.74961643593518
  N   -0.25498547419684     -3.58692260023082     -1.18143048220033
  C   -1.18003229250311     -0.46099933618293     -0.08150776581985
  C   -2.41698171754212     -1.12906509582064      0.12496858071522
  C   -2.69910580678156     -2.46882636978582      0.40543519775160
  N   -3.09925361186154     -3.52289829266825      0.69644963124782
  C   -3.46570000840237     -0.17416791516259      0.18373449634144
  N   -4.75263715337018     -0.45361550499951      0.39624197825091
  C   -2.90301186607798      1.10289947605589      0.00303278197376
  C   -3.63866146829109      2.28698067623148      0.00417095499121
  N   -4.27626827760599      3.26237282019960      0.00938989858611
  C   -1.48672738331264      0.98379602633624     -0.12301637230524
  C   -0.75543524296051      2.13714484179869     -0.31991915336902
  C   0.58806725599572      2.51473368253392     -0.28064024122561
  N   0.81843780152865      3.84869618843599     -0.52582553569581
  C   1.74732169040811      1.77405981912520      0.00972099745998
  C   2.08783457168989      0.44902156473823      0.08056151712219
  H   5.62980127594976     -1.47241891607359      0.38889885959061
  H   4.82777547777312     -2.92296978372532     -0.05236434048652
  H   2.17295942089039     -2.87772085581885     -0.37864336101066
  H   -5.04744228420463     -1.40049269822164      0.56002324251578
  H   -5.43214010156065      0.27985946219390      0.48513928420680
  H   -1.40828967802719      2.99382619006864     -0.45439532350733
  H   1.71605357662223      4.23572323897359     -0.29704830648729
  H   0.05134047953589      4.49371407918641     -0.46198433771063
  H   2.60852133050152      2.41584739947242      0.16756738997980
