28
Coordinates from ORCA-job ./opt_b97-3c_parallel
  N   -1.62650272751668     -4.78383487988988     -0.13399005247904
  C   -1.26947327225591     -3.68200724066851     -0.08229816071143
  C   -0.81336649010532     -2.32520047790646     -0.02187589629705
  C   0.58199251636430     -2.26566546520896      0.06868882395129
  C   1.57336000221855     -1.27159750017856      0.08511689607000
  C   2.85264467146830     -1.89733042898658      0.23582911796612
  N   3.82167487860893     -2.51312026001497      0.39857278119088
  C   1.55479599165397      0.12779090069401     -0.00474890062534
  C   2.73554890042247      0.93054353216848     -0.07669203898143
  C   4.08164303591660      0.54913921518625     -0.20905860422554
  N   5.22036054456305      0.36775281223038     -0.34840670158235
  C   2.39093077829762      2.29068947768634     -0.06757270996852
  C   1.00898481169665      2.39698174326908      0.01249017306455
  C   0.28135185843452      3.59579413842740      0.04687453302969
  N   -0.28405290700917      4.60916314081195      0.07567292767954
  C   0.42773452732877      1.08822353877507      0.03117635797233
  N   -0.88134411297048      1.03237347849602      0.06670136303984
  C   -1.80109251153031      0.10949684323178      0.03508396838896
  C   -3.17265676169153      0.52853328051699      0.03399839951484
  C   -3.60399651693173      1.86007138945497      0.09285435843736
  N   -4.00220636653919      2.94999328625630      0.14161969736119
  C   -3.99840240743698     -0.59814242466028     -0.04920375617978
  C   -3.19505825776843     -1.73262134868057     -0.09725158282990
  C   -1.83458656938664     -1.37047926531265     -0.04345043732308
  H   1.01563937308743     -3.25344112084694      0.12556769142301
  H   3.09217891672126      3.10525960504121     -0.12427155847910
  H   -5.07514918411376     -0.58078193962819     -0.07175081993147
  H   -3.55889936752622     -2.74507833966369     -0.15681951557552
