29
Coordinates from ORCA-job ./opt_b97-3c_parallel
  N   4.52011162205971      0.85082818544871      0.92759868558704
  C   3.40531512754246      1.00369458314671      0.63865039067053
  C   2.04840979706299      1.22471684085894      0.35419170897671
  C   1.41591714435585      2.47173918108743      0.51961224548249
  C   0.07196303425288      2.34314832507016      0.20609790705760
  C   -0.84065146941042      3.39511956253805      0.39326665415573
  N   -1.52379321964970      4.31143572295013      0.59883557571101
  C   -0.20147310538065      0.96131992567202     -0.09247688053285
  C   -1.48628289471940      0.49896981170109     -0.37715493709377
  C   -2.41727675273961      1.44240800143507     -0.90538446626297
  N   -3.12290069963088      2.17473975786396     -1.46216271654205
  C   -2.05974989886876     -0.76245899559540     -0.10181680488428
  N   -3.39619821310441     -0.82242987399869     -0.05089922092561
  C   -3.73019831058421     -2.01635540728920      0.51861002372707
  C   -2.62684406230102     -2.77348207418137      0.82779661576120
  C   -1.48630287141022     -2.03181885372480      0.39045239693213
  C   -0.28193784572997     -2.65031514240173      0.21943817594683
  C   0.91436885772629     -2.29023086307618     -0.45334602737853
  N   1.62119039615212     -3.35853756964575     -0.91982424964528
  C   1.49304615052396     -1.00786679184907     -0.53425187365702
  C   2.75109481682181     -1.01434574652355     -1.19121180970854
  N   3.71907054081803     -1.12217452978892     -1.82586426215044
  C   1.08904758705464      0.25657367361986     -0.01810194866069
  H   1.89140542964487      3.36931171844064      0.87659283811053
  H   -4.76878380134914     -2.26227281086295      0.67553736203767
  H   -2.60391145584196     -3.77435669623723      1.22792205506859
  H   -0.26971562980699     -3.68245086876654      0.55393314778144
  H   1.13944413965500     -4.21647934545269     -1.11230764633932
  H   2.47833408914907     -3.21308417023030     -1.42597876532249
