32
Coordinates from ORCA-job ./opt_b97-3c_parallel
  N   5.04934248981173     -1.85538083502246      1.22948188162383
  C   4.27418423370009     -1.04668271021470      0.91667243826454
  C   3.29742190041492     -0.12234905163879      0.52856101568739
  C   3.48350365909427      1.22452651989148      0.29282584015506
  C   2.27539523903019      1.79261362771924     -0.16169856257425
  C   2.16947501792022      3.17707407585384     -0.36691708263269
  N   2.19921761950339      4.33164561692137     -0.49372847277919
  C   1.26525384053466      0.79199998039615     -0.18042574751940
  C   -0.09251758237063      1.06330670833809     -0.38112423476780
  C   -0.40649323248593      2.28872739103699     -1.03409468493672
  N   -0.71097083740210      3.19099920915394     -1.69806631951867
  C   -1.23418801607970      0.34023517766103      0.03901301360238
  C   -2.45364815864014      0.96811457806216      0.35248449100598
  C   -2.77372277242058      2.31231461553546      0.55373717832696
  N   -3.16975870444857      3.38108547798194      0.78750387299143
  C   -3.38581723095746     -0.07861566246483      0.62276239817666
  N   -4.63903770248492      0.07333032972076      1.03642156297892
  N   -2.84015778126761     -1.29039455542588      0.43098507078235
  C   -1.54721548777670     -1.10635479856427      0.10975804713305
  C   -0.85603678781055     -2.26448041936731     -0.29918391612857
  C   -1.70415867958999     -3.37987371228559     -0.54094812591914
  N   -2.26570144161771     -4.36188755904724     -0.80483298269565
  C   0.52149655976247     -2.56229378603899     -0.40097528416984
  N   0.86585577234213     -3.79235003300267     -0.84622913680814
  C   1.62548109769188     -1.79178718764493      0.05023215002590
  C   1.93253052138918     -0.47122189417253      0.19679044709536
  H   4.39895705986590      1.77285828522074      0.43892423309511
  H   -5.20407616146235     -0.73772600164904      1.21485973262933
  H   -5.03386239728726      0.98705282377979      1.17298151448406
  H   1.82751489586219     -4.07566565932264     -0.86620746622479
  H   0.17101989822446     -4.48862460092919     -1.05671771265141
  H   2.47561408305443     -2.42995966338138      0.26958585786697
