27
Coordinates from ORCA-job ./opt_b97-3c_parallel
  N   -2.97411704807989      3.38206163251953      0.00711942796930
  C   -2.19171687078937      2.52466864822971      0.00484703554185
  C   -1.24467253917051      1.45430541467055      0.00194736968212
  C   0.06012738794637      1.91512384873451     -0.00054088062815
  C   1.35136534425585      1.35527923434930     -0.00395978514241
  C   2.37267775511175      2.35697464824184     -0.00565391636294
  N   3.13449199822528      3.23162321908374     -0.00688448123281
  C   1.83166218707520      0.04586173943247     -0.00598820637499
  N   3.16415587629925     -0.12979474597650     -0.00926877382290
  C   3.38944519619084     -1.46113656687249     -0.01038648705108
  N   4.64270856673231     -1.92173010130986     -0.01357664086614
  C   2.19280546852527     -2.21358224820145     -0.00781087841024
  C   1.14677093364562     -1.30638641049825     -0.00497151038014
  N   -0.09943852567785     -1.76158628189425     -0.00235674485951
  C   -1.28986010811020     -1.24721517470335      0.00033956563754
  N   -2.32862257490992     -2.13075316170287      0.00194401215614
  C   -3.45093149254786     -1.41145270723545      0.00446755555847
  N   -4.65146701749222     -1.99948456944857      0.00674357325717
  C   -3.21180720566413     -0.00378276131383      0.00477875592222
  C   -1.85070528800858      0.16696625297931      0.00218563591800
  H   0.10461520007557      2.99576664318511      0.00025403781240
  H   5.40263109412652     -1.26418700052839     -0.01543412456560
  H   4.84758644060193     -2.90237103331188     -0.01485471060918
  H   2.07407166968259     -3.28365385514872     -0.00800717003741
  H   -4.70484222816266     -3.00236045553992      0.00498324851784
  H   -5.50093598399851     -1.46819554118416      0.00682482964981
  H   -3.95995669788262      0.77197320094389      0.00675447752062
