35
Coordinates from ORCA-job ./opt_b97-3c_parallel
  N   -5.10286061334375     -1.92615259178247     -1.46538719457094
  C   -4.33696541985044     -1.13933558452450     -1.07459146636969
  C   -3.44525420627539     -0.17760221880422     -0.60652895372374
  C   -3.80204436818820      1.13832765621356     -0.26183072543536
  N   -5.00438129029387      1.69818521162221     -0.43872902489529
  C   -2.66650821275707      1.77834747938132      0.29498573100967
  C   -1.58376594021340      0.91083675442214      0.28141981067853
  C   -0.26191365743152      1.37695325214566      0.48102411508331
  C   -0.20437519078849      2.70872008137617      0.98210288299435
  N   -0.22517500539914      3.75659714966818      1.48147610484226
  C   0.97088590367203      0.81152435761185      0.12733824538515
  C   2.09812852305629      1.61300970959720     -0.21143008930113
  C   2.17510075747245      2.97707943656718     -0.50571885685131
  N   2.37443806829623      4.08223862189247     -0.81194721079270
  C   3.19984655593237      0.76750220748196     -0.44780794514020
  N   4.40186943315921      1.13744358573354     -0.87953846644063
  C   2.79124564541166     -0.57826585538400     -0.20126416078344
  C   3.66399138777486     -1.64977197252876     -0.41062669658010
  N   4.46622620249532     -2.45620162721094     -0.65582309354970
  C   1.43091684884387     -0.59094774307145      0.14350038612111
  C   0.82212476423630     -1.76052718918411      0.67626522021817
  C   1.69777826656403     -2.63973187773153      1.35944951035389
  N   2.31656862023038     -3.39260942879012      1.99452422241758
  C   -0.48573985194296     -2.26549242685224      0.53003346633675
  N   -0.72361998757532     -3.53418986848917      0.94941696637573
  C   -1.60710378712589     -1.67165227001732     -0.11016205760669
  C   -2.08418958204078     -0.39999551149033     -0.20427178602828
  H   -5.76328616067019      1.17275027355467     -0.83473220682869
  H   -5.20466637104710      2.61762461987556     -0.09322972999649
  H   -2.62813308660648      2.81632955256881      0.58040195039760
  H   5.11692764712865      0.45445225031005     -1.05988607054530
  H   4.60450282762971      2.10481329411666     -1.06451677960302
  H   -1.66452738348740     -3.87229753367874      1.01801435072666
  H   -0.00728718334601     -4.07339171860799      1.40452645977438
  H   -2.31689631582251     -2.41721485269716     -0.45329081187360
