26
Coordinates from ORCA-job ./opt_b97-3c_parallel
  N   1.58545086860808     -4.29296138574519      0.38328477331816
  C   1.66021233077257     -3.13929152437141      0.25509426192896
  C   1.70774587885567     -1.74749576282284      0.10673739620380
  C   2.84843663007793     -0.99024332557169     -0.13702277158162
  C   2.48690455755297      0.36096283397253     -0.23270029499935
  C   3.35748647649231      1.44337142291434     -0.41991255693339
  N   4.07801430273158      2.34184416730321     -0.57397214260332
  C   1.08116325337910      0.49441132273588     -0.04284447665917
  N   0.57402794421628      1.70158749931594      0.04442008272733
  C   -0.60910786895363      2.25811433308693      0.16685930309963
  N   -0.55380641605794      3.57500340404958      0.52150433894777
  C   -1.92513785086238      1.76872869039760     -0.09076519110507
  C   -2.48089705096795      0.52745960613120     -0.16789437100560
  N   -3.84947970646105      0.49028475467845     -0.38110492573842
  C   -4.21092691555308     -0.78016591193843     -0.27886745900195
  C   -3.12193939662155     -1.63970910073543     -0.01234097795505
  C   -1.98362184068466     -0.84552588232101      0.05260843767899
  C   -0.70764448589482     -1.39883669527715      0.19799615070871
  C   0.55888448246417     -0.88352233419279      0.13630001589603
  H   3.84921749517771     -1.37781682620934     -0.22776777460046
  H   -1.36427120442517      4.16344726158924      0.46956969906647
  H   0.35056440545520      4.01392259902119      0.50697073578540
  H   -2.66701350491709      2.54438464466667     -0.24358202110564
  H   -5.24534816568778     -1.06908511884784     -0.39897665340059
  H   -3.15088866004372     -2.71260920006376      0.09470665460508
  H   -0.72990796805273     -2.47771336526589      0.31773143082335
