25
Coordinates from ORCA-job ./opt_b97-3c_parallel
  N   -0.68752209669282     -4.55103772811638      0.12625323545560
  C   -0.13713157621739     -3.54471088945786      0.11671341711225
  C   0.55777591702317     -2.32827216692402      0.09503317731569
  C   1.94522037245008     -2.18599590122488     -0.09556196938416
  C   2.27058713672169     -0.83830617357010     -0.07887575665493
  C   3.58614959260370     -0.36122477137482     -0.15940191474789
  N   4.68741009756302     -0.04332397282616     -0.21603386537914
  C   1.07445995313197     -0.06472372919196      0.09121322558340
  C   1.01071384349117      1.30209108014221     -0.07607929748599
  C   2.19370714873259      2.02990445000010     -0.35042982323546
  N   3.07884873142585      2.72201791303381     -0.58263020291342
  C   -0.14687716304983      2.16866453302868      0.05248086024425
  N   0.06017262953630      3.38847243719313      0.59497954444874
  N   -1.34340539782900      1.94576471119085     -0.40458986935931
  C   -2.28777444084182      1.09847724872604     -0.46674360550969
  N   -3.51021976302040      1.21949711209316     -0.94499873792836
  C   -4.23361383702125      0.31473600795269     -0.26118710567356
  N   -3.59841316327221     -0.48309636760707      0.58051700660078
  C   -2.30110410574665     -0.21014874974106      0.39630179855207
  N   -1.29595604410089     -0.95173060197553      0.55632669963568
  C   -0.02233853844142     -1.05640553797382      0.28052790546924
  H   2.64034963638066     -2.99654431189897     -0.21584467571850
  H   -0.68714289026554      4.06169693785452      0.56420721713546
  H   0.99045084271722      3.70151723851051      0.81664652556029
  H   -5.29804889967577      0.24995703695597     -0.39555812102142
