28
Coordinates from ORCA-job ./opt_b97-3c_parallel
  N   4.95381940530537      1.71177220049238      0.06805540755727
  C   3.96782689370940      1.09348370082815      0.04922373525784
  C   2.86004420798252      0.24509038291951      0.02732676856450
  C   2.94734918256053     -1.15946330790393      0.01478578937995
  N   4.08039604252566     -1.86995321256365      0.02937990107541
  C   1.63660565760873     -1.68807596897977     -0.01333192662135
  C   0.70112844931335     -0.66454896352415     -0.01799552515146
  C   -0.68515459294070     -0.94401226526793     -0.03402341096468
  C   -0.98552960953206     -2.34389524617692     -0.05291951047602
  N   -1.11908011791016     -3.49607383961976     -0.06703106616357
  C   -1.83329623371048     -0.14501419330662     -0.03175868406241
  N   -3.02162899710556     -0.79002460121244     -0.03839922951049
  C   -3.98304259119086      0.15099379711502     -0.02370438697476
  N   -5.27892865700481     -0.20542189419317     -0.05533175399754
  C   -3.44629433442997      1.45712749085559     -0.00933691102359
  C   -2.06391824594527      1.32318661061438     -0.01296186805125
  C   -1.22597173634676      2.44211173610138     -0.01258869709703
  C   0.13502495443882      2.66230841634588     -0.01094347990703
  N   1.22939237139071      1.90972716944014      0.00317837816979
  C   1.48920373273966      0.63340756350437      0.00534715753625
  H   4.06758841480657     -2.87203954648219      0.00497122620456
  H   4.97320365112730     -1.40939121070369      0.04004548487557
  H   1.40649068380217     -2.74023546919240     -0.02613387993875
  H   -5.49927403981007     -1.17815270760185      0.06694566416413
  H   -5.99816199777274      0.46385531015361      0.14262729838425
  H   -3.99099423929063      2.38777362779295     -0.00411746211763
  H   -1.78223861497721      3.37372416447754     -0.01308173396802
  H   0.38758113505731      3.71969194988751     -0.01634225044464
