30
Coordinates from ORCA-job ./opt_b97-3c_parallel
  N   -1.80617453449917      4.48766509044326      0.64743406434248
  C   -2.00149524154489      3.36499529993946      0.41553410370900
  C   -2.21361229086990      2.00743516189462      0.14761865356563
  C   -3.41179960932770      1.44317012681940     -0.31401645375638
  C   -3.24505321775690      0.07133184175218     -0.49720095948465
  C   -4.22717779812806     -0.85750439820593     -0.86249386857789
  N   -5.03161926104150     -1.64130850933584     -1.16050474800547
  C   -1.91069985365495     -0.28350813032568     -0.11619114010091
  N   -1.58329691023007     -1.52804483814209      0.03912377782307
  C   -0.53593329477367     -2.26579375194984      0.34604498327838
  N   -0.85266151986855     -3.43591754864825      0.94074624211315
  C   0.84386456029109     -2.05856787523741     -0.00719806480520
  C   1.58281965132183     -3.25878883661695     -0.17633518652215
  N   2.09162245036454     -4.29942838036052     -0.26535244277724
  C   1.58317342210956     -0.88320668300849     -0.14642170742047
  N   2.89478368824514     -1.02694608044489     -0.45072021349747
  C   3.47226385840085      0.17033964960336     -0.32076701258741
  N   4.76932936896400      0.36389240720132     -0.54651316475097
  C   2.52849520126799      1.17254689392719      0.07801697201168
  C   2.83685803687759      2.51932117619727      0.26487499506498
  N   3.16473673290001      3.62677916304508      0.41036305720283
  C   1.27859794301484      0.53532110414302      0.15910489273915
  C   0.11427278549606      1.27657376511706      0.36729694561653
  C   -1.21771394729352      0.99101573631390      0.22006987116100
  H   -4.32448913944663      1.98870427043398     -0.48756454587797
  H   -0.16267379864536     -4.15385327319051      1.07747966122804
  H   -1.82208340559687     -3.70272399753113      0.94398529465128
  H   5.34053182152189     -0.41044853502350     -0.83484846938997
  H   5.19137851918100      1.26775567938759     -0.43486667960267
  H   0.31151824072110      2.32654405479898      0.56196802644878
