31
Coordinates from ORCA-job ./opt_b97-3c_parallel
  N   3.58273872036638      3.59085276693305      1.60292797686854
  C   3.29585333849202      2.52869964606652      1.22966402354320
  C   2.92588484030487      1.25915366610102      0.77088315838244
  C   3.71516139096931      0.13735303113191      0.65987317699529
  C   2.99094562696637     -0.91575192038362      0.03148267676402
  C   3.56862090874130     -2.18378125769288     -0.12556716135196
  N   4.14855031783551     -3.18779691541063     -0.20419611286442
  C   1.67303265861306     -0.48211126325224     -0.22039337875683
  C   0.58043598076826     -1.30011977529073     -0.53036427808664
  C   0.86385600196524     -2.60543914669572     -1.02552347667052
  N   1.08445168098000     -3.62316416791633     -1.53569764219677
  C   -0.78852887776400     -1.11040130373151     -0.22113403373164
  N   -1.50730481580257     -2.23324696875997     -0.04545649640950
  C   -2.71848982228807     -1.87111402148080      0.41094578622142
  N   -3.63351129668700     -2.77057689954792      0.75137034435312
  C   -2.85819954066042     -0.45145561081482      0.48394543072550
  C   -4.02692544513420      0.16847107997902      0.93036957308877
  N   -5.03851491845010      0.55379405984357      1.35693017435734
  C   -1.64412201615187      0.08553908055682      0.02809252579386
  C   -1.50170775784520      1.40561925236840     -0.42945164794355
  C   -2.67084278507049      2.17573824710016     -0.62902864757343
  N   -3.57802000699471      2.85721722856333     -0.88307364842553
  C   -0.30211917039144      2.08443846731220     -0.79274221447273
  N   -0.35885402523074      3.11101960397186     -1.65968763130510
  N   0.87274196563275      1.92420605426624     -0.20258807655028
  C   1.65348965876560      0.96587835231322      0.14873698667237
  H   4.73806184403148      0.05075868334565      0.98685247108179
  H   -3.42639505618249     -3.74877310686889      0.65095880765899
  H   -4.52417869663125     -2.49283898856753      1.12428604725546
  H   -1.24225515119337      3.42648559819856     -2.02244635096110
  H   0.41382702772332      3.75428167887531     -1.67910255295926
