31
Coordinates from ORCA-job ./opt_b97-3c_parallel
  N   -3.02218386322583     -3.65153906209968      0.04747538388072
  C   -2.25713925876880     -2.77913537442645      0.03556357229686
  C   -1.29976198117519     -1.71400141509536      0.02332319244504
  C   -0.00126062969828     -2.22226322448423      0.05325174156153
  C   1.29812255109176     -1.71584261561563      0.03085304352029
  C   2.25362630210196     -2.78272396933099      0.03291738341396
  N   3.01699755618199     -3.65667182900861      0.03291566030743
  C   1.87945821506841     -0.43457503487977      0.00360519937421
  C   3.26778379731366     -0.29268617826377     -0.02873104642103
  C   3.60118063483442      1.07180479636248     -0.00595362919231
  N   4.85258442157597      1.58037622392037      0.00597218267294
  C   2.41140869363842      1.81584403652572      0.04810981689112
  C   1.31048748869798      0.94910477267850      0.04703619925428
  C   0.00085340147802      1.47060969722206      0.06888335419713
  C   0.00075806092635      2.90345289253976      0.14041301297976
  N   0.00063098097153      4.06179951846768      0.20345650565521
  C   -1.30842198356882      0.95101916575390      0.00927405829514
  C   -2.40774472808589      1.81918613922525     -0.02095890189448
  C   -3.59787677490132      1.07606608526479     -0.07995897743913
  N   -4.84543010374902      1.58776943161937     -0.16522484010043
  C   -3.26624587029899     -0.28898233241300     -0.08130078060131
  C   -1.87877275360380     -0.43234186030577     -0.02628129531215
  H   -0.00210884469787     -3.30294227739593      0.08523344956225
  H   3.97383927760443     -1.10539683761297     -0.05462335606217
  H   4.99000367222958      2.56191859677734     -0.15092660856921
  H   5.63007319867402      0.98678267081458     -0.21783201536381
  H   2.35956098251494      2.89046229871058      0.07496097363086
  H   -2.35443225470213      2.89403536276380     -0.01272910802607
  H   -5.63617389837529      0.98649954479477     -0.02275275285486
  H   -4.99464897432244      2.56089548726575      0.02930709362266
  H   -3.97266061602975     -1.10101273997460     -0.11695337292445
