28
Coordinates from ORCA-job ./opt_b97-3c_parallel
  N   -0.28108291077328     -4.73498348988827      0.54181078824156
  C   0.20689199596020     -3.69619132311763      0.35658571083488
  C   0.76261856900354     -2.42537168575708      0.15266528129680
  C   2.06486944974764     -2.15220288736747     -0.20001713675672
  C   2.21301512407654     -0.75045875917766     -0.33321939604300
  C   3.41211147172403     -0.16457089430154     -0.77106781544373
  N   4.41266332926945      0.25444411177277     -1.18708314039735
  C   0.97964674452758     -0.11014284765351     -0.07621043123006
  C   0.90158994907318      1.29859991847647      0.13358484241538
  C   2.11422060937693      1.89790153319375      0.56693845145655
  N   3.01555086498877      2.48592595344903      1.00664879666603
  C   -0.13423562544200      2.24511492579684     -0.02154028358492
  N   0.17956939237978      3.56667324829334      0.12178869774691
  C   -1.49000593055547      2.05850491607882     -0.41279730666584
  C   -2.40625346507578      1.05671207760532     -0.32282444153254
  N   -3.71629208543637      1.41705670329747     -0.61672003335634
  C   -4.46845810459966      0.37487652196999     -0.30614775545887
  C   -3.71267058792667     -0.72086341769429      0.17686172269453
  C   -2.38048652403550     -0.33034569522338      0.16031176444271
  C   -1.34083637745847     -1.23796915588630      0.37756000368043
  C   0.01442622491941     -1.18533768999070      0.18688541546560
  H   2.84415600261290     -2.87434643845509     -0.37450516586281
  H   -0.55899265092811      4.22854390260484      0.26884057820120
  H   1.08823566307113      3.83858916578474      0.45613210433179
  H   -1.95570511967339      2.97051418879882     -0.76887173332422
  H   -5.54127370394012      0.41272208892555     -0.42977122810505
  H   -4.08408535328247     -1.69294227524321      0.46105788820011
  H   -1.69816587940340     -2.22843260799238      0.64012526158691
