28
Coordinates from ORCA-job ./opt_b97-3c_parallel
  N   -3.99521012704268      3.10587199318593      0.63693690285554
  C   -3.14160125900265      2.35849197266657      0.39769617210350
  C   -2.07257528323049      1.45070301469077      0.11605712227510
  C   -0.91644651597596      2.11511262588736     -0.28567850392259
  C   0.43774358134592      1.77210110668137     -0.38550736378668
  C   1.19280662518335      2.89050470974618     -0.86120542183027
  N   1.70114610086816      3.81147776575842     -1.34998523663998
  C   1.17438856321329      0.62002227588645     -0.06079948065957
  C   2.57156002054046      0.68993349354902      0.25080983838405
  C   3.35524500541734      1.82706913929505      0.51078618120631
  N   4.05952286452574      2.70780302434405      0.78745529698233
  C   3.06106709304826     -0.59804318442264      0.43497240049932
  C   2.03203857943294     -1.51558800194043      0.18386578282726
  C   2.22689934817008     -2.89378904846929      0.37641445245229
  N   2.48415214891870     -4.00209807633951      0.60828665965420
  C   0.83038483379910     -0.80658706929791     -0.09960275850872
  C   -0.36734042019227     -1.47939121316597     -0.42214817845616
  C   -0.21187680746926     -2.78797930799569     -0.97576871501616
  N   -0.04653305333859     -3.77993598638932     -1.55309128132149
  C   -1.70864881699086     -1.12790205851725     -0.22691438628871
  N   -2.59289228973986     -2.15805700018496     -0.27948869212202
  C   -3.77212347019929     -1.69566632856688      0.16008436390719
  C   -3.72206266539312     -0.33557062153946      0.46649694952177
  C   -2.40900238241028      0.09174339127157      0.20759075894084
  H   -1.08668437010445      3.16444546621178     -0.48100142402457
  H   4.05836451864652     -0.85178357911863      0.75066946015480
  H   -4.62254805321103     -2.35501500725027      0.23965677869745
  H   -4.54153475510674      0.28936680432716      0.78014960591241
