26
Coordinates from ORCA-job ./opt_b97-3c_parallel
  N   -3.92223740275126      2.89050483433564      0.37919009596695
  C   -3.08990482392148      2.09363698176406      0.24694099728508
  C   -2.06039397171160      1.11192651566660      0.09177714646261
  C   -0.80120783196774      1.70191816869533     -0.04687822170156
  C   0.52861658929464      1.27602827405526     -0.13157813279475
  C   1.39485637171951      2.40016907300771     -0.30788393383726
  N   2.02669937241270      3.35598969872613     -0.48896750993869
  C   1.16132183777355      0.02217970544849     -0.05100702909637
  C   2.54942266693227     -0.15567559921347      0.02950018398198
  C   3.62465358137766      0.73048169973452      0.14961612256601
  N   4.63125361397965      1.29975398566929      0.27788615841205
  C   2.77343477484124     -1.56815001083552      0.05859656070551
  N   3.95389264331863     -2.16580810082185      0.17048021510580
  N   1.63345264182692     -2.26618538556844     -0.04197046896787
  C   0.61529616201066     -1.38405004439462     -0.09185540489173
  N   -0.57945042790297     -1.91939710346495     -0.20182235367723
  C   -1.81873869311141     -1.53445824590041     -0.16041739618602
  N   -2.75939252343232     -2.51537513270946     -0.26101183553384
  C   -3.94886511514923     -1.93052394714790     -0.09441441392433
  C   -3.87203249044942     -0.54610910347162      0.11861610630872
  C   -2.52524601487013     -0.20822448552331      0.06490227946791
  H   -0.87082847032789      2.78027018506149     -0.08070229844274
  H   3.99786268588632     -3.16937405090954      0.18515334047607
  H   4.80333699459253     -1.63408354984319      0.24681298998829
  H   -4.85333466931088     -2.52116530712834     -0.12774708191360
  H   -4.69790051986037      0.12933820436855      0.26753179008103
