25
Coordinates from ORCA-job ./opt_b97-3c_parallel
  N   0.53521881361406     -3.75618676647834     -0.04760367663547
  C   0.27030795599834     -2.62777951029891     -0.03179756949571
  C   -0.03331817181640     -1.23181724877933     -0.01170725453301
  C   -1.40542485721575     -0.94116176449201     -0.00250973185252
  N   -2.27209504060113     -1.97056762303890     -0.01233128695255
  C   -3.49014642903575     -1.39214854382873      0.00855032992308
  N   -3.52640289560149     -0.06357558423729      0.03238757258262
  C   -2.20853643620841      0.31401350702159      0.02652567662575
  C   -1.97228187451031      1.66516741229413      0.04243819636076
  C   -0.84391784635817      2.50519283266719      0.03361946735139
  N   -1.14761801670117      3.84759917047184      0.08589731016273
  C   0.52016736073295      2.21286726655087      0.02065328733970
  C   1.31378324093858      1.07916674956169      0.01057106940631
  N   2.65037330535181      1.28772460494467      0.00674050955951
  C   3.18545660140907      0.05243248403482     -0.00959870635999
  N   4.50284855312122     -0.15825012158048     -0.02687456677217
  N   2.30946698497037     -0.98035305140365     -0.01923951854625
  C   1.10283714189012     -0.40157352218118     -0.00748997259810
  H   -4.39145947189783     -1.98777363041061      0.00601441986948
  H   -2.91429242548739      2.20197960898757      0.06947648773920
  H   -2.07898259225450      4.13677843903509     -0.15156033578720
  H   -0.43065503365091      4.51024607169779     -0.14753032438392
  H   1.15190372747023      3.09434697747958      0.02782846072309
  H   4.85341534302354     -1.09663709406304      0.02035013886572
  H   5.13554111351891      0.61598933684560      0.04279272990755
