27
Coordinates from ORCA-job ./opt_b97-3c_parallel
  N   -3.02705082221773     -3.33121421450158     -0.00089858143437
  C   -2.23630618820283     -2.48169330491984     -0.00172847692181
  C   -1.27327632231848     -1.42471683360859     -0.00289304829982
  C   0.03320321402215     -1.91991295032375      0.00075802983691
  C   1.32443062004790     -1.39474838860321      0.00161288107468
  C   2.32927151930787     -2.41204068441827      0.00644151658983
  N   3.08520835339676     -3.29187745287669      0.01059003549926
  C   1.83877103565862     -0.08385861688489     -0.00132793466293
  N   3.16287726873565      0.07888223540932      0.00042467217772
  C   3.33489686180195      1.42806671033695     -0.00335320662334
  N   4.55601822470188      1.96223565811729     -0.00320896600373
  N   2.21975927483297      2.17945594423228     -0.00745256954795
  C   1.20799270743264      1.28513638151468     -0.00645079580209
  N   -0.01551823031172      1.76131999306188     -0.00972291765732
  C   -1.22795747309843      1.26576561759089     -0.01014132432500
  C   -2.30053336669784      2.15966758611851     -0.01419055182935
  C   -3.50502943484480      1.44262538155728     -0.01404125475671
  N   -4.74010820027268      1.96067525280475     -0.01746248720289
  C   -3.21372955170988      0.05264930555691     -0.00987996546582
  C   -1.84559311709110     -0.13827595512586     -0.00726535533198
  H   0.04794852840608     -3.00133545192435      0.00377131443294
  H   4.66746686516662      2.95855896222922     -0.00455246934132
  H   5.36125755086691      1.36428023224670      0.00140472757286
  H   -2.17738497942001      3.22948491182874     -0.01694323818577
  H   -4.88914185731356      2.95235295668561     -0.01936954639879
  H   -5.55157334072851      1.37102344191362     -0.01609616209931
  H   -3.95565160765034     -0.72925033971762     -0.00893674989400
