32
Coordinates from ORCA-job ./opt_b97-3c_parallel
  N   4.19135462071050      2.83167935749181      0.50219972562532
  C   3.21954524394689      2.22521168200659      0.31672519788406
  C   2.01488791202983      1.48718732522805      0.09480503233465
  C   0.94648230016707      2.34125827571572     -0.19915266065431
  C   -0.43586162742314      2.23289522725492     -0.28223624652146
  C   -1.04326582205706      3.50206142014454     -0.53801965292014
  N   -1.52949527735594      4.53387518100243     -0.75181078339359
  C   -1.36655240476226      1.18955382226983     -0.05925995505863
  C   -2.71829218212888      1.48341442123470      0.11725312693578
  C   -3.43884919607307      0.29500252049939      0.28765572351300
  N   -4.74639662448319      0.16891379400438      0.54247314125867
  C   -2.53386639479847     -0.79643650821274      0.15305365646994
  C   -2.98038124976532     -2.09612943414727      0.40541695524273
  N   -3.50787178080615     -3.09709019163665      0.68064716145481
  C   -1.22818477829272     -0.28664994088738     -0.06573496489913
  C   -0.14585062122160     -1.13493675654872     -0.35923038243950
  C   -0.53677726212652     -2.41814502423034     -0.85586024196741
  N   -0.78766143916933     -3.43638712486127     -1.35260561725448
  C   1.25464252527230     -1.03147047787963     -0.20412577726589
  C   2.04931916612399     -2.17510373029262     -0.25378875083465
  C   3.36804794865975     -1.85046074484935      0.13290827550369
  N   4.38032059119121     -2.72555715384907      0.25146273848229
  C   3.42892096729650     -0.47141926710824      0.39053389373949
  C   2.17289712040653      0.09445268501673      0.16170861915732
  H   1.27724471766590      3.36287211210542     -0.32737867119237
  H   -3.14077516195265      2.47350421566639      0.13355505236103
  H   -5.14657257925400     -0.73880717094154      0.70680397444973
  H   -5.31946373045733      0.97218838158404      0.71922323022681
  H   1.69875202320425     -3.16951578679244     -0.47031717926064
  H   4.28049218176156     -3.67319723014376     -0.06127213686767
  H   5.30616457120470     -2.41450110852000      0.47915594932349
  H   4.31870576468660      0.07692899887657      0.65003332746653
