29
Coordinates from ORCA-job ./opt_b97-3c_parallel
  N   4.82660401990487     -1.65492356735649      0.00315878577678
  C   3.96496167096617     -0.87288039114288     -0.00310133073266
  C   2.89252953550281      0.02719052164954     -0.00698227489658
  C   2.98516474661735      1.40993814955851      0.01603570895825
  C   1.68973514072303      1.94819835775465      0.01407220971121
  C   1.38852353412613      3.31669032333644      0.03392772787595
  N   1.13233327766824      4.45093741813755      0.05063535363911
  C   0.73185641901681      0.89301151767282     -0.00874363992879
  C   -0.62124285190935      1.18330161616613     -0.02168368961409
  C   -1.78990440332569      0.44230506574635     -0.03620842649831
  N   -2.94663552608222      1.14411430781780     -0.03765645677042
  C   -3.95609746365262      0.24686478702427     -0.03653440618191
  N   -5.23501798879127      0.67460896251546     -0.07652103928968
  C   -3.48623541183565     -1.07723395652929     -0.03380904835508
  C   -2.09129291516767     -1.01246671935222     -0.03420063687206
  C   -1.32559929913199     -2.17242883042325     -0.03611941314414
  C   0.02724845731460     -2.49922579784871     -0.04707529682954
  N   0.30229572958878     -3.86153431845376     -0.11749945929875
  C   1.18574975904448     -1.69501448195334     -0.04814307016270
  C   1.49894888575972     -0.35967371438453     -0.02287750892817
  H   3.89862499436253      1.98025072343005      0.03405381183297
  H   -0.84092246355849      2.24513735148850     -0.01839506584003
  H   -5.98013644117338      0.04669867245253      0.15975085778175
  H   -5.39412301432798      1.65240290964934      0.09237245739695
  H   -4.07796520661902     -1.97902157584752     -0.04093887953831
  H   -1.95753732660538     -3.05627730985315     -0.04164228559228
  H   1.21444362665003     -4.15628936299531      0.18473762787664
  H   -0.42521795016768     -4.48711198882415      0.18086103209493
  H   2.08488985840284     -2.30325054003557     -0.07171553727097
