30
Coordinates from ORCA-job ./opt_b97-3c_parallel
  N   2.83952516747407     -4.15706949360126     -0.01266471158192
  C   2.74982079151539     -2.99715775803901     -0.00611210037856
  C   2.60071575822309     -1.60506820908031      0.00014103355791
  C   3.63477422822075     -0.67003383157825      0.02552388057895
  C   3.08394024927256      0.61062437066784      0.02413673464777
  C   3.79928412757163      1.81376207249768      0.04400395797089
  N   4.35355070273446      2.83671903800912      0.06053522607844
  C   1.64798821188765      0.51676322387442     -0.00166118911605
  C   0.90647990514277      1.67403281857522     -0.03161819296568
  C   -0.43962346305936      2.08654840785430     -0.05204483913387
  N   -0.57815476563781      3.44267845545878     -0.13776314349556
  C   -1.65463246597375      1.33760053154541     -0.00093383955175
  C   -2.82106987463120      2.15881863663056      0.03662475633725
  N   -3.66573172670610      2.95544188939632      0.06700011373835
  C   -1.96885954235472     -0.02856802203149      0.01089041155613
  N   -3.28710979944772     -0.31745538043145      0.04146839968965
  C   -3.40908717888930     -1.65891623173391      0.02451705483653
  N   -4.62112020516472     -2.22876423859033      0.06675884480124
  C   -2.15230167716403     -2.29884748252472     -0.01671632543049
  C   -1.18911006556207     -1.29435351791928     -0.02383533140435
  C   0.16487369925607     -1.62308085343419     -0.03408307603306
  C   1.34140957162140     -0.91837223549881     -0.01351892420368
  H   4.68710702524285     -0.89894131411887      0.04341855390424
  H   1.56352553323590      2.53753627738472     -0.04629235221148
  H   0.22619503629177      4.03044371762571     -0.02746552484908
  H   -1.47688442795777      3.87978147122432     -0.03567735400832
  H   -5.43219588663137     -1.63863220221545      0.01357744073351
  H   -4.73977280173062     -3.21516883842773     -0.06231943728036
  H   -1.95620612671900     -3.35888098720924     -0.02895021308618
  H   0.32179826033927     -2.69686495681003     -0.04989039720044
