30
Coordinates from ORCA-job ./opt_b97-3c_parallel
  N   -4.80818125071272      1.73697809731985     -0.04848122550387
  C   -3.95802940214922      0.94220478899284     -0.04195122886638
  C   -2.90411121886100      0.02035119270446     -0.02949663692469
  C   -3.03584327885134     -1.36824600575814     -0.01260296454335
  C   -1.76186202379598     -1.93342946428243      0.00603105957384
  C   -1.47568159964146     -3.30418688077145      0.02736646311674
  N   -1.20920187008931     -4.43678921336160      0.04483293301048
  C   -0.77552361174993     -0.88924309607841      0.00080741887817
  C   0.56650626084890     -1.21301350843962      0.02348122208642
  C   1.76269520143822     -0.51150438596388      0.02312577854786
  C   2.97437701400938     -1.20456906546364      0.04096028779853
  C   4.04858161152412     -0.28962424682892      0.01466372498728
  N   5.36704438097273     -0.62074248060339      0.06735639245003
  C   3.51446408664709      1.00273017100565     -0.01284975994074
  C   2.10757420596350      0.93592189894830     -0.00928118018267
  C   1.37081474766794      2.10128924381550     -0.03370134683855
  C   0.01623370049232      2.46880760890603     -0.03111703581836
  N   -0.19319955031964      3.84762936975824     -0.10018796337762
  C   -1.15682727130365      1.70951999221706     -0.03052733390375
  C   -1.50986544738135      0.37303029145176     -0.02453564354722
  H   -3.96568554906923     -1.91151269554688     -0.01277136812713
  H   0.72865023794455     -2.28637595276319      0.04566852746259
  H   3.06489830536569     -2.27987543673881      0.06768181145642
  H   6.04009158698076      0.07308906161450     -0.20488161595846
  H   5.62572293133163     -1.56228495512923     -0.16750230033269
  H   4.08400734155025      1.91942650252767     -0.03071616902385
  H   2.02052715258880      2.97159669171013     -0.06729463808655
  H   -1.10607751422454      4.17003770282781      0.17171001852236
  H   0.53827362398001      4.42788071799818      0.27246143823263
  H   -2.03966013395676      2.34145804223215     -0.04509134074759
