30
Coordinates from ORCA-job ./opt_b97-3c_parallel
  N   -3.52139632319942     -3.51893416173617     -0.40194675789677
  C   -2.80551516475439     -2.62039291565595     -0.24388889952222
  C   -1.89617270715777     -1.52929169539595     -0.05467386189592
  C   -0.62317084381972     -1.99535537842439      0.27351379101899
  C   0.66631414996427     -1.45636925091225      0.32573406100766
  C   1.60570435886443     -2.47180823777616      0.69387274761207
  N   2.28877618507878     -3.33201081037342      1.06685143093708
  C   1.21078320042518     -0.18718666010732      0.06903324989850
  C   2.60177656821835      0.00407617622081     -0.14653860257057
  C   3.62790411340828     -0.90967129229319     -0.40667619813000
  N   4.58760426151071     -1.50806824686894     -0.68134490533678
  C   2.87740906008139      1.39573642298793     -0.19885829623818
  N   4.08410843867839      1.93235976848644     -0.41883720108487
  C   1.67195142450746      2.07860882651170      0.01375263169212
  C   0.62031365875098      1.16329418254666      0.13584333771247
  C   -0.70378275304149      1.64679031092488      0.31082035047128
  C   -0.72946746620653      3.04536812369634      0.63154764881996
  N   -0.73478922273779      4.17002675267749      0.91348193164120
  C   -1.97596264449457      1.10509056019455      0.13540728967238
  C   -3.11557054277828      1.95106196959274      0.09724752827485
  C   -4.22631804891033      1.21441909194920     -0.27958602182159
  C   -3.84898384395706     -0.12032181503717     -0.44975537607636
  C   -2.47746368620449     -0.26033484425601     -0.18268549976224
  H   -0.61745221626363     -3.06044620700409      0.45634791291785
  H   4.20589744083500      2.92373019620128     -0.50129727604388
  H   4.87720910715663      1.34393330946659     -0.60717080604086
  H   1.57208985572221      3.14969066092201      0.04701766695393
  H   -3.09896418659115      3.01232805300221      0.27507071535196
  H   -5.22138745598580      1.60658648327153     -0.41764103090824
  H   -4.51080020620115     -0.93236594811069     -0.69969930555549
