28
Coordinates from ORCA-job ./opt_b97-3c_parallel
  N   -0.00049049078242      4.66511374174588      0.88114761467182
  C   0.42718882338463      3.61822370208169      0.61751866110696
  C   0.98345983482627      2.36697123669845      0.31438824618302
  C   2.26948643342231      2.13316324585670     -0.13127766627877
  C   2.44573371744722      0.75592677625990     -0.38791468027390
  C   3.62994195367967      0.24557435705762     -0.94008228425531
  N   4.61170824157341     -0.10809228980734     -1.45209019755692
  C   1.24952123298444      0.05776875234683     -0.09646705024387
  C   1.22645988799027     -1.32366596008570      0.13901176834234
  C   2.49937881032515     -1.91596539921249      0.36437442577666
  N   3.46373469102906     -2.49909563652308      0.64799957604137
  C   0.16577973852280     -2.28970526078711      0.22299920799349
  N   0.53556997375041     -3.56695771276761      0.49611235497460
  C   -1.20780233607448     -2.14617906835807     -0.03259568265722
  C   -2.11080539263718     -1.11265617439561     -0.09689195642501
  N   -3.40933993157081     -1.41440545035098     -0.32842900238152
  C   -4.04303990305433     -0.23204597633061     -0.22504862991314
  N   -5.35437511992712     -0.10171696991940     -0.40895577579747
  N   -3.27371651702952      0.85082325059736      0.08952921751975
  C   -2.03615369191168      0.36231497471640      0.16060794738036
  N   -1.04671160601735      1.20953064280618      0.40264214907904
  C   0.23692767911647      1.13827569269009      0.25321686689055
  H   3.02432114746355      2.88396806436287     -0.29662405681878
  H   -0.15872141910718     -4.28227872189569      0.59354520242705
  H   1.49624429123351     -3.82996067998047      0.62622545053770
  H   -1.71492221316541     -3.09507166826657     -0.16575308386819
  H   -5.91191414472119     -0.90003774487890     -0.64951832214250
  H   -5.78268039055324      0.80063652394291     -0.31654345201087
