29
Coordinates from ORCA-job ./opt_b97-3c_parallel
  N   -2.17003730244228      4.46560772709693      0.76367193735748
  C   -2.15236051730430      3.33307183264054      0.50197757364860
  C   -2.10308896172124      1.96434279229275      0.20352341167224
  C   -3.13996421811383      1.21744939600449     -0.34753727416169
  C   -2.69460428676388     -0.09381066998994     -0.55172906841700
  C   -3.49462252044399     -1.06806102433004     -1.16885494407248
  N   -4.19711070516583     -1.80162684183168     -1.73291521095785
  C   -1.34507864338687     -0.21321721472972     -0.09294680051581
  C   -0.74629558041422     -1.45058219060050      0.18050922191009
  C   -1.56236304508763     -2.61044687620638      0.15002076972368
  N   -2.14133701741085     -3.61489045701259      0.23359149309067
  C   0.60240243122757     -1.75910310257121      0.57923529976790
  N   0.81932663961995     -2.87331454970345      1.31069034190361
  N   1.71043805839899     -1.17294288818001      0.15650107398451
  C   2.13815548736146      0.03019749922867     -0.04292471801974
  C   3.48793859540342      0.26797640889423     -0.49490714784848
  C   4.36635388983451     -0.73888208112657     -0.90911213200151
  N   5.08870547449045     -1.58462103897381     -1.24663395009527
  C   3.77305538169343      1.61936020383315     -0.31488883584060
  C   2.64515737146178      2.26608352069870      0.21172943166248
  C   1.59226487950197      1.35395370436913      0.33990050250072
  C   0.28392109388600      1.75027847780592      0.55455127104269
  C   -0.93382614705731      1.14290084193423      0.31217839855464
  H   -4.11884281249129      1.58650027125725     -0.60211279051836
  H   1.75599525276451     -3.23971745038611      1.31815248962706
  H   0.06893054589916     -3.51343680163694      1.50594411600256
  H   4.71953902514729      2.08446170405528     -0.53681541139948
  H   2.57212345026303      3.32088248731102      0.42409269070545
  H   0.19306205385232      2.80166499605743      0.80758165489610
