27
Coordinates from ORCA-job ./opt_b97-3c_parallel
  N   -2.52734753321361     -4.07488205826613     -0.12395533300854
  C   -1.99514193019140     -3.04667679128746     -0.06266257123818
  C   -1.31883188812787     -1.78561175320629      0.00711329048186
  C   0.03922069673823     -1.95118753073762      0.24453752271453
  C   1.18299507285333     -1.13063836586033      0.21752463284971
  C   2.33136240037416     -1.93617148834653      0.51384695770777
  N   3.16845680417867     -2.66829709295603      0.84246776753864
  C   1.41864682603166      0.22562665674417     -0.02301894688597
  C   2.74147423671765      0.73587002884404     -0.24681688177800
  C   3.92500281048244      0.04145533658729     -0.54479082372785
  N   4.94456711625959     -0.42409049621808     -0.85059081633594
  C   2.69737565147624      2.13332271647611     -0.25906940778406
  C   1.39236455395380      2.54135656512223     -0.03341641739989
  C   0.54544834920736      1.42082957280222      0.06841786292143
  C   -0.84324465342357      1.61344832794541      0.19529566938533
  C   -1.22324805173437      2.98050405767162      0.42019447140367
  N   -1.42313995055500      4.10102753826471      0.63830076263557
  C   -1.95391865506997      0.77332265452559      0.05394256271809
  N   -3.15664374252582      1.40849407117071      0.00130712705650
  C   -4.08900055934352      0.48110061109751     -0.25037416420818
  C   -3.54261519737307     -0.79931541678505     -0.33831490186763
  C   -2.15877323622895     -0.66775053534494     -0.14005936834897
  H   0.29655313930278     -2.98467525011800      0.42556899602207
  H   3.54662935076684      2.77213319660903     -0.43497915403011
  H   1.06319424791259      3.56411374725670      0.01715360142406
  H   -5.12567518339998      0.76066530491446     -0.35842073483541
  H   -4.07520995536772     -1.72204075700610     -0.49644112731068
