30
Coordinates from ORCA-job ./opt_b97-3c_parallel
  N   5.44184696479691      1.30968698664195     -0.49359718986272
  C   4.41914725438815      0.77000487465133     -0.35381322041254
  C   3.22959920718634      0.06001872581766     -0.18755966100131
  C   3.17182684309324     -1.35443197603203     -0.07413821394451
  N   4.22507671257265     -2.17758899670189     -0.18106061531263
  C   1.83691717440443     -1.71663062307159      0.13756406511287
  C   1.02290403411042     -0.57653664641272      0.13582230540130
  C   -0.38160068369951     -0.70116786417930      0.24114181475399
  C   -0.77413972863568     -2.03781940057514      0.56037065970130
  N   -1.02862234651023     -3.11948941705172      0.89478917812525
  C   -1.46755049847892      0.18306457561436      0.07216882311854
  C   -2.80536212214462     -0.25181102601949     -0.07657398036424
  C   -3.37212478844888     -1.50119058133416     -0.34024892152944
  N   -4.00115827173851     -2.44454281658740     -0.60457281982030
  C   -3.61288790125801      0.92011827180181     -0.07142567720845
  N   -4.94102017270123      0.95859697645955     -0.20907224577016
  N   -2.88293977342199      2.03197218229195      0.09221862059181
  C   -1.58264630619483      1.65818284812571      0.14682094182159
  C   -0.67260222634917      2.70380355510427      0.28291358512145
  C   0.69842884027234      2.83270952162230      0.22042272868404
  C   1.76446354319962      1.96527657649904      0.03066629547086
  C   1.92545095733141      0.59400330258224     -0.04254435944932
  H   4.13422682725669     -3.15563923069560      0.01984992598619
  H   5.15482022109323     -1.80680699544923     -0.26443174878037
  H   1.48768057196766     -2.72952165510160      0.23651662729103
  H   -5.39920612822200      1.84805653209653     -0.28526329593108
  H   -5.45969284822751      0.12335894109925     -0.41330547399601
  H   -1.19897017317274      3.64414277739621      0.38819194159376
  H   1.01931276158076      3.86474573495926      0.29818173347485
  H   2.70909146864918      2.49053934494863     -0.05897546756624
