33
Coordinates from ORCA-job ./opt_b97-3c_parallel
  N   5.59260566297832     -0.54887776703171     -0.49384803709625
  C   4.47483167606527     -0.30915880114026     -0.26941693141809
  C   3.11590801115885     -0.08978389392794     -0.02310622898419
  C   2.50399091333202      1.07945506671667      0.47661010543417
  C   1.12362783961047      0.90145492140421      0.46737862599519
  C   0.25378338766673      2.00032543894532      0.78207603529196
  N   0.62030714003138      2.78484736718214      1.82096902712055
  N   -0.76575936973772      2.42707661416854      0.07872349618721
  C   -1.60871198255839      1.78743558881532     -0.70681764194781
  N   -2.08115757013076      2.50153715554837     -1.75395685935359
  C   -2.19548027424713      0.51314920878328     -0.46202138435796
  C   -3.57028464117470      0.30550924813277     -0.59347339300352
  N   -3.97126543015398     -0.87818187221874     -0.08066763999650
  C   -2.85898499421359     -1.47681672824752      0.36423384683707
  N   -2.93579115145447     -2.77079109104074      0.87203948058244
  C   -1.68399967047004     -0.68824391129299      0.16653395809098
  C   -0.36264164181618     -1.19720344207993      0.17762873849365
  N   -0.21349912644546     -2.52549685569892      0.37760274405680
  C   0.84006445957073     -0.44283297068675      0.00088622219071
  C   2.09996290665939     -1.02504647683714     -0.30025212136179
  N   2.34172081096711     -2.33486891139276     -0.72885323594084
  H   3.02487900281841      1.99855989219194      0.69009754759835
  H   0.21779672557293      3.70135700001889      1.90649195898879
  H   1.44356445623983      2.56329652355510      2.34777691849810
  H   -1.91473642339097      3.49196293422069     -1.77779251779809
  H   -2.80170414626926      2.12008954907257     -2.33723749331597
  H   -4.30386307882529      1.02448024372158     -0.92945200361443
  H   -2.47596030898154     -2.88333269429398      1.76535454357137
  H   -3.90351398635737     -3.05391458486300      0.93714851234595
  H   -1.00665930590372     -3.13733543335880      0.25258280606043
  H   0.71391026569768     -2.92148800228044      0.34296230220865
  H   1.81582866979882     -2.58488727654254     -1.55496444756652
  H   3.32445219336235     -2.49703995754465     -0.89987974679778
