32
Coordinates from ORCA-job ./opt_b97-3c_parallel
  N   5.44801139220459      2.37372663542873      0.77447372536289
  C   4.51359841951580      1.73462599982003      0.50937717184382
  C   3.38822728120878      0.96316685432469      0.17736171917993
  C   3.27898436074797     -0.42980678598363      0.28174274507723
  C   1.96874326548807     -0.81638405772998     -0.05562474822215
  C   1.62725494206158     -2.19895871891142     -0.16859443984834
  N   2.67315132721418     -3.03559832607625     -0.38854031304008
  C   0.39575463807822     -2.83325898691517      0.04136552288878
  C   -0.86617355053699     -2.38265367516389      0.35386449895880
  C   -1.56504337811263     -1.17798378571160      0.28820091240464
  C   -2.93026147228247     -1.19316925632331      0.62845241852232
  C   -3.51191219370292      0.03142961349121      0.30881237664667
  C   -4.82837788326397      0.45369269278930      0.52849323938711
  N   -5.90387461591020      0.86929328375821      0.68648079663175
  C   -2.51222578438019      0.85018841039181     -0.28121760302851
  N   -2.75646206652565      2.13542687908142     -0.71299643880397
  C   -1.28898698247262      0.12942610547282     -0.31122653042838
  C   -0.09423951822655      0.67393854358107     -0.81931112595156
  N   -0.20130500203608      1.72876858365352     -1.67129761907359
  C   1.25001441886933      0.38921655554409     -0.40516089268366
  C   2.15500317135759      1.45751739618588     -0.28077670378768
  H   4.05798622722701     -1.07703009129127      0.64889226211233
  H   2.54145753242124     -4.02967750344270     -0.40153738569808
  H   3.54411865739106     -2.67863691184759     -0.73086129165886
  H   0.47033331201715     -3.91590834155075      0.04654718039963
  H   -1.51290081095149     -3.19302308896175      0.67528588299176
  H   -3.45125510086318     -2.03857512111006      1.04726854665275
  H   -3.65169578505111      2.49607890850422     -0.41662134019555
  H   -2.01683283619139      2.79947120055324     -0.53903907590088
  H   0.62342369168079      1.99578620859318     -2.17638334568995
  H   -1.07963462250526      1.89716965659582     -2.13357559555231
  H   1.91825458742956      2.50301622625069     -0.38832004929692
