31
Coordinates from ORCA-job ./opt_b97-3c_parallel
  N   -1.06005232818660      4.40374314822149     -0.28207905001651
  C   -0.83584031159476      3.26407071302333     -0.21179485675410
  C   -0.55387651711033      1.87188669440528     -0.11593473232006
  C   -1.69943817891781      1.07104904495975     -0.08610001450651
  C   -1.96852944116930     -0.27978719143530      0.00365337027426
  C   -3.33749667315005     -0.74185166700921      0.05886757000891
  N   -4.45341192377685      0.03615841599600      0.03895446195057
  C   -3.35450731067186     -2.14603606571889      0.07832836719394
  C   -2.03999333773403     -2.57600370138391      0.04745573410634
  C   -1.14470069076925     -1.47893336825485      0.01050150518569
  C   0.22266791150097     -1.72538872902186     -0.02228298233114
  C   1.37314179605255     -0.96402093010049     -0.02616528110835
  C   2.66236181588042     -1.58498781096097     -0.04188643890127
  N   2.91271825088701     -2.92185975916626     -0.07003505060857
  C   3.67202213312370     -0.61532684012106      0.04963297954190
  C   3.06713688380751      0.63041667513788      0.10556401068737
  N   3.73820589195370      1.81114806384711      0.15274486394583
  C   1.62236853372280      0.47877172059231      0.02992858195428
  C   0.83233252982643      1.59242596973412     -0.03501311927641
  H   -2.59103574744863      1.68469976906221     -0.15431096133782
  H   -4.37950429000416      0.99311303172138      0.33487824218501
  H   -5.31651933774519     -0.40199845145866      0.30674531122879
  H   -4.23746669840611     -2.76464155957757      0.11479288729249
  H   -1.72142590077702     -3.60859308458398      0.06120082719462
  H   0.41346140922497     -2.79497695928478     -0.00670911221697
  H   3.84142899731193     -3.20293390070910     -0.32972308628567
  H   2.19636676110332     -3.52749039197105     -0.42844747279102
  H   4.73332055906007     -0.80962293506168      0.07688240044245
  H   3.25713426881805      2.62082282808818      0.50095906091623
  H   4.70669444634556      1.77461087756370      0.41576275257563
  H   1.39536452734301      2.51828866566697     -0.05310866302979
