34
Coordinates from ORCA-job ./opt_b97-3c_parallel
  N   6.34519418638253      1.14533651920126     -0.18326488986249
  C   5.26723895130843      0.70474833437843     -0.21350746985518
  C   3.94499786742163      0.25255370115988     -0.21916517999815
  C   3.45640056798632     -1.02159953788064     -0.53392204179551
  C   2.06602102123534     -1.06539922816024     -0.34513061956292
  C   1.38330838642819     -2.27446574424883     -0.48428485019831
  C   0.12197978744591     -2.73136945968533     -0.18833823912559
  C   -1.11200816659705     -2.16932346560086      0.20729469184894
  N   -2.03590399149231     -3.13968646395573      0.62126109712834
  C   -1.60484115226068     -0.85461142373022      0.13433190445302
  C   -3.00244417172508     -0.56640296417030      0.11508097195038
  N   -4.05532672126579     -1.42478635483726      0.15470807859384
  C   -3.19838849128598      0.83383052329156      0.00312312763546
  C   -4.42911484889927      1.47138975377481     -0.13854824755445
  N   -5.45934710602258      2.00304986875456     -0.26270129069549
  C   -1.93791950159561      1.44395417193032     -0.06492146348094
  N   -1.75791047799868      2.78726905051222     -0.16520947718611
  C   -0.91695503967577      0.44357233610056      0.02722726569395
  C   0.39552284769486      0.86177732208905      0.12086677236302
  C   1.64481365798866      0.26204855624488      0.06300139172809
  C   2.83304967696226      1.04641059117190      0.17203623161430
  N   2.92129333353551      2.35595056254546      0.52613718850686
  H   4.06655287271861     -1.85848161771451     -0.83532115453507
  H   2.04219758107209     -3.07530870317128     -0.80548411971500
  H   0.05983853241581     -3.81313247553012     -0.25808511700752
  H   -2.59764303946399     -2.86509371752290      1.41261912403229
  H   -1.62406346741964     -4.04470776391993      0.77669725607615
  H   -3.87328566996247     -2.37481673316364     -0.13130760175908
  H   -4.93959318989763     -1.04772288089289     -0.14747074098133
  H   -2.58292277008060      3.33372091941309     -0.34856799577468
  H   -0.94541450550695      3.11671054193537     -0.65473356390897
  H   0.47123079085195      1.94045804940828      0.22307529189707
  H   3.85117916809637      2.72052766009601      0.65441533344980
  H   2.25762708080388      2.70712465656705      1.19330794912628
