36
Coordinates from ORCA-job ./opt_b97-3c_parallel
  N   5.62462501106645      0.74935920677474     -1.28098935900373
  C   4.53201997849803      0.72691495365881     -0.87766208386097
  C   3.22723050111664      0.62473482534103     -0.38494985054180
  C   2.27763044608965      1.64169023006585     -0.24176860954000
  C   1.05882511277676      1.07791632417318      0.17976941340394
  C   -0.05037213349828      1.89436384742412      0.52835110232184
  N   0.28015022859804      3.15067475093554      0.95703336364213
  C   -1.42248139587804      1.59241786581974      0.43640676307243
  C   -2.41234650614389      2.56060184567266      0.71362534869794
  C   -3.62243134076216      2.19696903230398      0.15101886981261
  C   -3.45684158630553      0.96846918669432     -0.50166251574704
  N   -4.48980101253533      0.28358210083893     -1.09423723630486
  C   -2.09079580300359      0.52859174636762     -0.31086540120320
  C   -1.75159198150652     -0.81208703597430     -0.48161414272768
  N   -2.47843557145551     -1.53990145394673     -1.39294042026670
  C   -0.90811148033469     -1.61322719537454      0.38390283350290
  C   -1.44650775478832     -2.87186215197589      0.70276841707937
  N   -1.85184565520309     -3.93394942300808      0.96735823078796
  C   0.40528644065992     -1.37899117442584      0.81193589523023
  N   0.97375379174704     -2.28205776528569      1.64351273031500
  C   1.27554357943072     -0.34614779442999      0.32869565468239
  C   2.61888115646009     -0.59968763488983      0.00088650173244
  N   3.29490258678605     -1.81886576582748      0.05372883816654
  H   2.44272007264076      2.66938596634315     -0.51922934922560
  H   1.25086552225410      3.35779457902309      1.09792753564633
  H   -0.31475289042858      3.92968292876174      0.74491811056160
  H   -2.25902571193139      3.46866842870089      1.27553305374377
  H   -4.55338180280444      2.73723087219254      0.22657671923817
  H   -5.40078016942100      0.57089133765057     -0.77242140867494
  H   -4.39061543581083     -0.72264013266275     -1.10263329572364
  H   -2.75266539065945     -1.06083724614215     -2.23374624980060
  H   -2.19864822463133     -2.49478896317405     -1.53966961626407
  H   0.51832264024242     -3.15694891249372      1.84286986106034
  H   1.96496805824043     -2.22920040409269      1.80705706331028
  H   2.78404415192865     -2.58855390194194     -0.35358179327440
  H   4.21340022716758     -1.76246542989498     -0.36231542624972
