31
Coordinates from ORCA-job ./opt_b97-3c_parallel
  N   0.00865056539537     -4.75688473344621     -0.00157855959559
  C   0.00645468417978     -3.59333124411408     -0.00103515256444
  C   0.00379843670836     -2.16972005365726     -0.00032219846904
  C   -1.28560249651847     -1.61241195333326      0.05969865503283
  C   -1.81147745313104     -0.34082179200438      0.03161291590312
  C   -3.24376730672465     -0.13298203610511      0.06083611276862
  N   -4.20275541972895     -1.06687989390161      0.14017219938208
  N   -3.60244095415558      1.15764467011597     -0.04650478277134
  C   -2.44174984829743      1.83468322398321     -0.13321361857581
  N   -2.48637064207876      3.18109876527737     -0.24177807127548
  C   -1.27545947052836      1.00303972552016     -0.05748379402246
  C   -0.00309889695447      1.54215708748176      0.00135895487596
  C   1.27125315607393      1.00772651971808      0.05978199778266
  C   2.43442745375450      1.84365409548992      0.13632791877151
  N   2.47400357215192      3.19013288388056      0.24603065380495
  N   3.59764040347966      1.17101785684771      0.04919148518659
  C   3.24378909821842     -0.12085309291807     -0.05926054449498
  N   4.20626290622854     -1.05109403538329     -0.13920315371368
  C   1.81228027097245     -0.33405561063124     -0.03040687084852
  C   1.29112104147985     -1.60756300810622     -0.05975440347778
  H   -2.03721064582689     -2.39280478047317      0.09611110955802
  H   -3.98983842014501     -2.00934954989668      0.40551052774981
  H   -5.14538290855120     -0.74909733057086      0.27663384662298
  H   -1.71137144600608      3.65871869800975     -0.66305687643355
  H   -3.39255952570346      3.56284289138213     -0.45278047754225
  H   -0.00513778833136      2.62872746915921      0.00181502008947
  H   1.69715843622024      3.66448690854576      0.66760013761337
  H   3.37872758319556      3.57509482843452      0.45747226857042
  H   3.99692796363766     -1.99420527456212     -0.40510856721387
  H   5.14773760251934     -0.72971345966437     -0.27518860672617
  H   2.04561854776609     -2.38512604957812     -0.09689902958746
