37
Coordinates from ORCA-job ./opt_b97-3c_parallel
  N   -6.12237384289148     -1.05454557309441      1.14113234449573
  C   -5.07478668761007     -0.63222650059538      0.86026848663998
  C   -3.78825317789741     -0.21475915936377      0.50164832860770
  C   -3.21836156926666      1.03763833977506      0.61572525505158
  C   -1.86970482888870      0.98838950393169      0.17187481050525
  C   -1.18223954843610      2.17833076848073      0.04403767236409
  C   0.12006023300277      2.55052852102441     -0.30297536328159
  C   0.23429550020960      3.93262483066910     -0.60458304022763
  N   0.35238661152066      5.06248950844924     -0.85869130338418
  C   1.35939518124570      1.84829701193433     -0.18387902110132
  N   2.46726821472027      2.65969240734635     -0.18062537829901
  C   1.59720096966150      0.47200055021476      0.02814415625012
  C   2.86173241400655      0.00663895047189      0.50234308256007
  N   3.87423691091851      0.71507863117770      1.07601447214526
  C   2.98069146139746     -1.37318880726977      0.24747219606737
  C   4.03936931005441     -2.18757993776397      0.64435186475832
  N   4.92078372643422     -2.87136642952019      0.98271166463957
  C   1.81076331327868     -1.81019111907838     -0.40634332346689
  N   1.64179627906091     -3.11191826628600     -0.76965711631538
  C   0.89687894549884     -0.71179832760729     -0.50428154558004
  C   -0.44267925422632     -0.95394719915843     -0.83837400951244
  N   -0.67492077012770     -2.04903654595246     -1.67528269965907
  C   -1.61193566582516     -0.36621352473412     -0.28192815253147
  C   -2.80704850763743     -1.09022829797359     -0.07682676688492
  N   -3.08979091563763     -2.39826439330897     -0.35939942234922
  H   -3.71651703826275      1.92509379108303      0.97024301710920
  H   -1.81618497099549      3.03947121823588      0.22364865181157
  H   3.33012258665515      2.28021000997991     -0.53047065526003
  H   2.33228294539851      3.63845607620549     -0.37201580257472
  H   3.63364122150821      1.58783521205092      1.51574895536854
  H   4.56242427788671      0.17100425023574      1.57109129877483
  H   2.25833270831720     -3.76994150125715     -0.31911280583049
  H   0.69349532251427     -3.43488778687417     -0.88383420710433
  H   -1.59146673094904     -2.05414016583981     -2.09498577461313
  H   0.03750349747577     -2.17757373298941     -2.37621769443237
  H   -2.31873784239808     -3.04556204695315     -0.36275041585391
  H   -3.91867647511582     -2.76247513524562      0.08424173111221
