27
Coordinates from ORCA-job ./opt_b97-3c_parallel
  N   -5.14515504415025     -0.08217075918458      0.56237294010856
  C   -4.07115766950209      0.33718605135312      0.41062531072987
  C   -2.75905917404781      0.79018107566307      0.22200259424969
  C   -2.36338702924239      2.11370075798249      0.07446768624486
  C   -0.97405262159590      2.15033096603204     -0.11925401884736
  C   -0.21347328793481      3.31681807423010     -0.28253767157281
  N   0.37789382919463      4.30685468313486     -0.41983807962329
  C   -0.45177807198608      0.82671555533271     -0.09030417473594
  N   0.85209886842441      0.65872419973720     -0.15930825620065
  C   1.62642933120704     -0.38296237707770     -0.05449393305391
  C   3.03890432020521     -0.19734014546470      0.00539201530805
  C   3.69863236111424      1.03082762147762     -0.12091113297758
  N   4.28349887237553      2.02968927812490     -0.22503506824249
  C   3.65939696507801     -1.43480977777907      0.25181159539513
  C   2.69822178712042     -2.43051744174469      0.32177356031061
  C   1.41474475215017     -1.88306177927706      0.11854555822863
  N   0.38761582077860     -2.68912785558322      0.02021732434008
  C   -0.91797065236886     -2.54172549479243     -0.12610628904909
  N   -1.56210286122810     -3.72178394080754     -0.37895859157148
  C   -1.78165704117562     -1.42978874519681      0.06501368754002
  C   -1.61133230322217     -0.07493615389926      0.10049181025624
  H   -3.01363311030879      2.97137955328896      0.10637011652656
  H   4.72361231067542     -1.57071312777178      0.35826679385321
  H   2.87214164969647     -3.48385551686710      0.46483433394641
  H   -0.98490985742646     -4.51972012573205     -0.57649184041144
  H   -2.50022476965427     -3.72854515439204     -0.73479299899121
  H   -2.81675928517655     -1.73160568278703      0.18742431443933
