32
Coordinates from ORCA-job ./opt_b97-3c_parallel
  N   -5.75801411498388      0.02147349584077     -0.74438166612338
  C   -4.62755056440089      0.07176854553038     -0.47738569220044
  C   -3.26434374411085      0.13396514717500     -0.14493644882340
  C   -2.44688246469171      1.26633092279912     -0.21773171541573
  C   -1.12577558523991      0.90181944676735      0.11561049715885
  C   -0.10998941952531      1.87623991304970      0.32404045356142
  N   -0.56413339304204      3.11976069539672      0.60259795786174
  C   1.29092642913253      1.71384656914040      0.23045412329218
  C   2.19200427059610      2.77507647021985      0.49942824131316
  C   3.44411358173901      2.46498554262315     -0.01144007018798
  C   3.36428339871123      1.21615898791303     -0.62657799003545
  C   2.05651923865664      0.69733806324152     -0.46656362685916
  C   1.83775719230835     -0.67836691655520     -0.73434133304813
  N   2.56045343884430     -1.22939729267761     -1.72556014616102
  C   1.12148761217838     -1.60268715993102      0.10083870937384
  C   1.72616183770783     -2.86667295093884      0.22327272959716
  N   2.20749461513462     -3.92341129647847      0.33229708343109
  C   -0.12032095228248     -1.45737526139622      0.74840570182508
  N   -0.49081997330780     -2.41984002572897      1.61518001614186
  C   -1.14447679024240     -0.51030442021096      0.41477341897755
  C   -2.46746898746667     -0.94968794631733      0.27750480779179
  H   -2.77573334907197      2.23656808765984     -0.55175215591860
  H   0.01791883115749      3.92667124825983      0.48803060755195
  H   -1.52414008986484      3.26129990280625      0.85153105513015
  H   1.96007803201398      3.67795998704099      1.04297905127987
  H   4.33813448623850      3.05941110663007      0.09055564015956
  H   4.21674643498050      0.66228884459703     -0.98851791357859
  H   2.65074146492081     -2.22745958171471     -1.81041830690382
  H   3.18229480494548     -0.66025728354784     -2.26885825853372
  H   -1.39543346883511     -2.37155369066999      2.04397139727545
  H   0.05144451307762     -3.25756132375422      1.74206583773765
  H   -2.80818627047713     -1.96994075396911      0.34477564232713
