34
Coordinates from ORCA-job ./opt_b97-3c_parallel
  N   -5.71069784592564      2.28886631268386      0.45992459964793
  C   -4.66921184878381      1.80520737208525      0.26395872895431
  C   -3.45492545087263      1.14888019596090      0.04646813934676
  C   -2.19805481627668      1.69610377434548     -0.18170877963026
  C   -1.23038003987890      0.67482897464782     -0.26932400472274
  C   0.10158730533448      1.08321188070570     -0.38013387420888
  C   1.33431283990401      0.49131262521052     -0.23739457230379
  C   2.53179843662147      1.27343871881172     -0.27529665727340
  N   2.64291033925889      2.58912843944226     -0.55387845748129
  C   3.62680751647280      0.47053427026774      0.11578760706098
  C   4.95038013223813      0.88805583616437      0.23517781667842
  N   6.05894396600694      1.23566379093393      0.33481749724034
  C   3.13885571325758     -0.83093835695264      0.37127458283001
  N   3.93497861341508     -1.86288833854375      0.73035605051376
  C   1.73523163294822     -0.87070100248405      0.11275075874857
  C   1.06568604452973     -2.07566363493260      0.05224797069860
  C   -0.21691165590161     -2.50716114710155     -0.25102741710555
  C   -1.48954599572687     -1.93300545942212     -0.34633825340243
  N   -2.49598741138373     -2.86477884036614     -0.59166729355381
  C   -1.93577119887478     -0.59828810977520     -0.15719222703863
  C   -3.30505162890931     -0.26909959760500      0.06446990068387
  N   -4.37454569443006     -1.09803700101703      0.24536138093655
  H   -1.98370544516429      2.75132656901086     -0.23862912389900
  H   0.15468621572146      2.15869255998455     -0.51917127020098
  H   3.56526613401698      2.97131663331303     -0.67051884212282
  H   1.92316334991457      3.04303517679689     -1.08473184738417
  H   3.52879165928424     -2.64441284033003      1.21040258003509
  H   4.88078102702715     -1.65059679623868      0.99764098579004
  H   1.72750936813675     -2.92752192730103      0.18149231465283
  H   -0.24976502804087     -3.58451339680872     -0.37887732296123
  H   -3.25139503306999     -2.54449512959307     -1.17789623351149
  H   -2.16631085246339     -3.77423539009469     -0.86726852303818
  H   -5.19572131074091     -0.65830307523592      0.63123618502784
  H   -4.17835949884389     -2.01365934536295      0.61806315019331
