21
Coordinates from ORCA-job ./opt_b97-3c_parallel
  N   4.02732127081352      2.20999364445368     -1.18620824412926
  C   3.27479788565534      1.40287218681535     -0.82438358798562
  C   2.36262369095118      0.42997245166765     -0.39560512948833
  C   2.63111630912362     -0.90847691095113     -0.16061175944476
  C   1.47383704144245     -1.57093715680525      0.31517619071412
  C   1.38925365740559     -2.94488576481974      0.57721484941347
  N   1.35235520817420     -4.08463199787906      0.79656321558751
  C   0.39829529916229     -0.66180122405865      0.36514925460562
  N   -0.84053337357663     -1.08395097397151      0.41773510903192
  C   -1.96742387721023     -0.46239738128358      0.15570854659213
  N   -3.06535262015712     -1.17939483669299     -0.14847633477690
  C   -3.92222026256727     -0.27381793619078     -0.65030539024341
  N   -3.54975294938875      1.02510040961330     -0.64981930439877
  C   -2.33305890407243      1.00874182070942     -0.09371895320402
  N   -1.76275017036137      2.10157035281525      0.35375858844672
  C   -0.55210505455974      2.36939142236435      0.74328899151757
  N   0.60971100751050      1.89710417037008      0.28349728618712
  C   1.01659220517166      0.70455016833440      0.03235695961986
  H   3.58453821842931     -1.38533322613115     -0.31855119785556
  H   -4.88712075376268     -0.57235854665085     -1.03306338003427
  H   -0.44741842628371      3.21679713659142      1.41428338044498
