27
Coordinates from ORCA-job ./opt_b97-3c_parallel
  N   -4.89644755938984      2.48989454880483     -1.17988700298076
  C   -4.17403823390856      1.64566461372627     -0.84139102091743
  C   -3.30177170708604      0.62547462358093     -0.44061161686714
  C   -3.60231832199817     -0.73108847583947     -0.35381204441319
  C   -2.49504366077015     -1.44717674958180      0.14269133574925
  C   -2.43368873158172     -2.83821037010753      0.29763258946484
  N   -2.40637436456758     -3.99236536390165      0.42533623641811
  C   -1.41675444597264     -0.55343466595863      0.34618591414436
  N   -0.19294258826167     -0.99687319569068      0.47783385114715
  C   0.97300020342210     -0.40120785455053      0.36939053905326
  C   2.13520919538357     -1.16935960815147      0.16049303742657
  C   2.25223110386742     -2.56086228117964      0.18156189102307
  N   2.45677349992098     -3.70552670815760      0.17669706095501
  C   3.20885600490093     -0.30773868571904     -0.20371388650076
  N   4.43616484425477     -0.69778945122244     -0.51966117281674
  C   2.74665065221885      1.03449161172388     -0.16363803149162
  C   3.57053179926071      2.14032760883400     -0.38797060075016
  N   4.31847413848099      3.00655264636410     -0.59309567666430
  C   1.40135092856824      1.04905817407732      0.25199181560539
  N   0.81945683870691      2.15201550794101      0.65221256066662
  C   -0.42383603033641      2.45532068715569      0.93728788415284
  N   -1.56744653127849      2.00735500609228      0.43804785078831
  C   -1.98657078255319      0.83700400386996      0.08343351509018
  H   -4.54627050998085     -1.17370125024045     -0.62611511484452
  H   4.69055677554044     -1.67069575274459     -0.49583305460879
  H   5.14083131104256     -0.02875127484930     -0.77916518135374
  H   -0.53843709058150      3.33239098462566      1.56710632712416
