27
Coordinates from ORCA-job ./opt_b97-3c_parallel
  N   4.86125123000876      1.89843214436999     -0.03147988995270
  C   3.97315243804649      1.14752923041554     -0.02226651115767
  C   2.88543147620452      0.26323580692241     -0.01136118559310
  C   2.98117815922023     -1.13303736284657     -0.00795567893452
  C   1.69455228698330     -1.66511947220581      0.00360013315614
  C   1.36316511340852     -3.02796049968875      0.00937189187390
  N   1.10503077334773     -4.16071622789114      0.01338329233568
  C   0.73440208676013     -0.60010187049088      0.00770565237218
  N   -0.53768086727135     -0.92762684358516      0.01995711110661
  C   -1.67351587187322     -0.26828601190506      0.02478148459756
  C   -2.86620308909178     -1.00815715957627      0.03537781681886
  C   -3.96212413995012     -0.13630938164554      0.02952611752762
  N   -5.26848262073047     -0.48601004493941      0.07362470857272
  C   -3.46761517205230      1.18969558586618      0.02200889985819
  C   -2.07539319546009      1.18380760412213      0.01709165516982
  C   -1.36301666177975      2.37586806660829      0.00752468692024
  C   -0.02011067389078      2.71550645957966     -0.00045851591001
  C   1.16958310278683      1.99862755793299     -0.00503951071076
  C   1.51186487765522      0.65751789440032     -0.00242769061121
  H   3.89854779887996     -1.69697147157246     -0.01338354650145
  H   -2.89087631804569     -2.08565616615213      0.04491192783848
  H   -5.96965830329896      0.19982103536982     -0.13908716816836
  H   -5.52580510029843     -1.43866759051622     -0.10983437102940
  H   -4.07805891023212      2.08093477476844      0.02251050820413
  H   -2.01406905318288      3.24454192469750      0.00695244747901
  H   0.14108178539305      3.78667221270069     -0.00532320295371
  H   2.04017862576321      2.64603358526140     -0.01272358430825
