27
Coordinates from ORCA-job ./opt_b97-3c_parallel
  N   -0.49851512769523      4.37895810730615      0.00193604064505
  C   -0.21868312495644      3.25328854538862      0.00145065134182
  C   0.11826628092404      1.86189915138365      0.00022923567588
  C   1.49544719833187      1.67344619320420      0.00011271606900
  C   2.37375910270363      0.57620722554363     -0.00087591816112
  C   3.74506278578015      0.99049696392336     -0.00020579952858
  N   4.81433895252969      1.43862748093229      0.00089485292844
  C   2.18586048052733     -0.80299948936618     -0.00238006880945
  N   3.29649407697554     -1.57765866830270     -0.00317016540555
  C   2.88661642942977     -2.85891078250624     -0.00468754821471
  C   1.49799725773790     -2.98211788772582     -0.00493467755920
  C   0.97169270883567     -1.68401525773484     -0.00347225964072
  N   -0.33830959469617     -1.51445581385087     -0.00328101488412
  C   -1.14247123852491     -0.49031435937631     -0.00210898415866
  C   -2.54325952086625     -0.75287959475068     -0.00229569392319
  C   -3.15401373867865     -2.00802093081831     -0.00363690021068
  N   -3.75130160552287     -3.00628547937418     -0.00472024057231
  C   -3.24750383148492      0.46874748523842     -0.00094235728936
  N   -4.57679645411139      0.60420578759623     -0.00060849667965
  C   -2.29912550171194      1.51800749354401      0.00007381261059
  C   -1.00949987994415      1.00651970817059     -0.00054719187899
  H   2.03248622033726      2.61148153745688      0.00104945793892
  H   3.61491528427877     -3.65650888913356     -0.00554976917115
  H   0.90259721363762     -3.87926322459482     -0.00598944726798
  H   -5.17531351383517     -0.20294636627207     -0.00168952762643
  H   -5.01032618006383      1.50841079254818      0.00003515027724
  H   -2.55246914563730      2.56559316597033      0.00117331819491
