29
Coordinates from ORCA-job ./opt_b97-3c_parallel
  N   -0.00009375886830     -5.05666536885201     -0.09433339467411
  C   -0.00000422999288     -3.89633070752575     -0.07540412500919
  C   0.00006939278955     -2.46863699697783     -0.03822261525609
  C   1.27530508027143     -1.89787626634488     -0.09344858231572
  C   1.78920455119794     -0.61313237402670     -0.05249921813166
  C   3.17726729230121     -0.45076132481345     -0.31213996100203
  C   3.51994692705875      0.88375895328029     -0.15684252347379
  C   4.78421336081200      1.46027920756021     -0.37269163234995
  N   5.82457851875117      1.94727076030495     -0.54320076767837
  C   2.36215861683393      1.58488882092887      0.26225692084947
  C   1.28202687758364      0.70645346969204      0.32871579777582
  C   0.00019507347250      1.16216215541964      0.75615893419653
  N   0.00018952317546      2.24186442925431      1.55472928288156
  C   -1.28161718412638      0.70658734369935      0.32851848890097
  C   -2.36164900875385      1.58513454513287      0.26189417243356
  C   -3.51945087482189      0.88412049597050     -0.15736824898709
  C   -4.78363541704062      1.46076205348690     -0.37338648009676
  N   -5.82394322264693      1.94783429212334     -0.54401331426854
  C   -3.17688522006832     -0.45043772909211     -0.31260888830140
  C   -1.78887579433737     -0.61295006062543     -0.05276264109641
  C   -1.27510134872785     -1.89774626688438     -0.09363415713745
  H   2.04830170553128     -2.64132278921961     -0.24915116483176
  H   3.84588635953539     -1.24686804645773     -0.59495516158358
  H   2.33387243010109      2.65267215520771      0.40728332796924
  H   0.85615847385689      2.59394919123947      1.93958658927600
  H   -0.85580154971959      2.59403562739421      1.93945717723094
  H   -2.33327357395794      2.65291774282730      0.40691874492673
  H   -3.84554679296062     -1.24647865944025     -0.59551708316919
  H   -2.04815238364821     -2.64111398936180     -0.24944831697774
