31
Coordinates from ORCA-job ./opt_b97-3c_parallel
  N   -5.58573788134608      0.75553883179175     -0.84409712099734
  C   -4.45005667608294      0.60851943309824     -0.63159511968684
  C   -3.10362211552850      0.36308368248771     -0.34630559778526
  C   -1.99534490464740      1.15725483113012     -0.66843334580702
  C   -0.81027746010166      0.52498973318416     -0.26640032303693
  C   0.41917818912949      1.23618107696698     -0.15433877130063
  N   0.33281513782678      2.59637091873679     -0.23523760121034
  C   1.71581894983478      0.71791342080224      0.06773927189595
  C   2.88694927465173      1.51377472363611      0.27664009328752
  N   2.97094767408211      2.87472934083902      0.50896384501023
  N   4.02533104908982      0.80904575883489      0.15991750033248
  C   3.64945512496946     -0.44607004045147     -0.14431701663359
  C   2.25913540172674     -0.60000243330430     -0.19710239754890
  C   1.66390535584158     -1.88033763107498     -0.30100150384569
  N   2.26584364023335     -2.78991405884927     -1.09889336733907
  N   0.66078986549339     -2.37253421961615      0.41949938245675
  C   -0.48824234086137     -1.86928937722377      0.76855262366324
  C   -1.20566357080765     -0.75471504070784      0.32300375763536
  C   -2.62683293484635     -0.80621341385233      0.29813374730591
  N   -3.44101565762753     -1.79335095222874      0.77280922151157
  H   -2.08766398981112      2.10546260096988     -1.17368123741268
  H   1.12714707832555      3.11569002333435     -0.57546184219021
  H   -0.56645446007600      3.01785971216873     -0.36328041481069
  H   2.30079573730499      3.22970730073323      1.17564840038007
  H   3.91574601335468      3.13286535079178      0.75378775279265
  H   4.38565264713254     -1.23521077803251     -0.19926191080823
  H   3.04639527675097     -2.52850766382274     -1.67091227975012
  H   2.05392986635892     -3.76372428559496     -0.97132306985120
  H   -1.02895472206630     -2.51625936230687      1.45880363708827
  H   -4.40131513038917     -1.75149742248612      0.47365138593883
  H   -3.07963253521488     -2.72856449255440      0.80996336341597
