33
Coordinates from ORCA-job ./opt_b97-3c_parallel
  N   2.56308301129997      4.21590279685637      0.50997893398283
  C   1.90709352071216      3.26782073508466      0.35496642382849
  C   1.11267494472540      2.10290210299073      0.16662033513676
  C   -0.25607282974776      2.35096092767033      0.00899483986846
  C   -1.37946670475472      1.56737788340377     -0.15441756507835
  C   -2.60310941053633      2.23806336478950     -0.47547338026689
  C   -3.62664916618584      1.33583317517893     -0.56143398057852
  C   -3.10204055395748      0.05631859511528     -0.24480069687314
  N   -3.90253136278358     -1.06739176893717     -0.21019526839860
  C   -1.70800726688691      0.15893970199486      0.02037422196966
  C   -0.92888882165878     -0.96412807897216      0.42798154743166
  N   -1.66928014682900     -1.97658241158969      1.05889732400304
  C   0.41641380796315     -1.26532178458166      0.18712010401492
  C   0.90981705885127     -2.61497064965656      0.15051063691731
  N   0.20594197097013     -3.77616807526522      0.35989018511075
  C   2.26361748866966     -2.62571711810879     -0.20221946690748
  C   2.67704860531094     -1.31532348878471     -0.37889691401890
  N   3.95024045426275     -0.93118878006625     -0.68249148214858
  C   1.57388376636902     -0.41626301159521     -0.12731592820758
  C   1.85546997241397      0.92261448093012      0.00568615696097
  H   -0.48008348285386      3.41037982129820     -0.04484512172892
  H   -2.67397206819096      3.30385158359139     -0.62857712323746
  H   -4.65758802247283      1.53642247567377     -0.81009994726870
  H   -4.75598199541645     -0.97703930755906     -0.73653109224448
  H   -3.44051661009056     -1.94780449729284     -0.37637866213885
  H   -1.13060701070879     -2.50667896351888      1.72573658133591
  H   -2.51750750578366     -1.63968438553795      1.48658270740498
  H   0.64423246334785     -4.60025156039044     -0.01746692762879
  H   -0.78402253078176     -3.73333607084579      0.17075480680465
  H   2.86100533010063     -3.51184284093987     -0.35525739826810
  H   4.06875338968452     -0.08113364023348     -1.20433246635328
  H   4.58214661955557     -1.65942863732989     -0.96354358402699
  H   2.91802230200152      1.13555459792821     -0.02479587979741
