30
Coordinates from ORCA-job ./opt_b97-3c_parallel
  N   0.11598872848381     -4.15377101918810      0.87380198804933
  C   0.06784728575770     -3.01601904008446      0.62910486224828
  C   0.03311868103156     -1.62878530914679      0.32908367096336
  C   -1.27512511209741     -1.20462361316569      0.03503685482614
  C   -1.93090916318956     -0.01060856747044     -0.09878372604660
  C   -3.36102925354464      0.05554704562081     -0.30519607749390
  N   -4.20262015986539     -0.96901534963841     -0.56647001902861
  N   -3.84687718719745      1.30081094043640     -0.15774719362348
  C   -2.77688554252906      2.06971387104101      0.12227563419075
  C   -1.56231980803104      1.36943281027979      0.15571631340440
  C   -0.34509005529737      2.01427983960600      0.30511962814071
  C   0.97406270930463      1.61892200791539      0.19684565376970
  C   1.94704687199909      2.64884516232889      0.07199820931109
  C   3.17315091773717      2.11680399071943     -0.24030247842997
  C   3.04043723746974      0.71349721288408     -0.26970374878076
  N   4.10667462235176     -0.11052142772304     -0.54040084226164
  C   1.68628495354408      0.34663658017497      0.03837003091069
  C   1.31707970737300     -0.99124516640468      0.31768191762731
  N   2.36574849584235     -1.85038039928562      0.54954053026143
  H   -1.94192481462713     -2.05921510390073     -0.02335623964876
  H   -5.14609115102948     -0.70582670581408     -0.79347199551610
  H   -3.85786681206927     -1.79085602598997     -1.02677547727774
  H   -2.89451049237417      3.13418533520426      0.27285406646505
  H   -0.45297074064678      3.08603244812140      0.44482031257955
  H   1.71303311782458      3.69945431759373      0.15118426383769
  H   4.08534895985142      2.65671331737787     -0.44258964608069
  H   3.88282099764887     -1.01912904185330     -0.91629145644512
  H   4.86491391079101      0.34029942976171     -1.02567495434895
  H   3.18491492999928     -1.46660375495609      0.98979739620474
  H   2.14635676148853     -2.79071428864464      0.83437327469193
