30
Coordinates from ORCA-job ./opt_b97-3c_parallel
  N   -5.38192402897840     -0.90022076571203     -0.42148982060203
  C   -4.28374860690633     -0.54007242051825     -0.27534669087269
  C   -2.94399787812646     -0.17989111583526     -0.10440132166640
  C   -2.40729628593615      1.11706542521303      0.06277370683612
  C   -1.02015638634026      1.04771883935958      0.11262542591608
  C   -0.21416729694587      2.20418679482019      0.35436614979391
  N   -0.81007518322379      3.20283257070091      1.06960391452936
  N   0.96792543158573      2.53135658671175     -0.11969263498584
  C   2.01243790690873      1.87591090171078     -0.57150758809776
  C   2.48940227280165      0.58946730571048     -0.36464011597117
  C   3.84663938991413      0.28300051196617     -0.61840129061309
  C   4.13372929716648     -1.00714241008855     -0.20393648030694
  C   2.94695903350230     -1.57618428491154      0.29234509651764
  N   2.80949972260698     -2.86405292387753      0.72848241155744
  C   1.88021154517691     -0.62520549414201      0.16774418305958
  C   0.55739414623395     -1.02300593293087      0.19945888644582
  C   -0.64583376913392     -0.35820188842616      0.01375877704084
  C   -1.86817763077974     -1.08887550868172     -0.12846484585844
  N   -1.99225897259173     -2.44987074416616     -0.22578333141265
  H   -2.99301878779741      2.02162223007682      0.07212056708337
  H   -1.51200526443032      2.96914858219660      1.74601015801797
  H   -0.25897247699832      4.02790043117952      1.23148702933561
  H   2.70280836106153      2.51675135942562     -1.11820896619942
  H   4.56046390605034      0.98623827852781     -1.02096275371403
  H   5.09545041527817     -1.49506066093791     -0.24376960622628
  H   2.11934431568875     -3.03646323753675      1.43845132474352
  H   3.66145827846645     -3.37506354976741      0.87987743257741
  H   0.42944649720626     -2.09259815380437      0.34938250340319
  H   -1.29599181781482     -2.92392822939088     -0.77459567555955
  H   -2.92323923434446     -2.77508578247170     -0.43285037407201
