23
Coordinates from ORCA-job ./opt_b97-3c_parallel
  N   -1.34150528856309     -4.15368765200618      0.39578421816876
  C   -1.42745121583434     -3.00114479418768      0.27357079554405
  C   -1.51842873103621     -1.60946758550447      0.13113482033854
  C   -2.67659953062357     -0.91205199720823     -0.27717414229127
  C   -2.39617598291554      0.44312103899061     -0.33334542529039
  C   -3.29948626784400      1.46935285854833     -0.64411278184979
  N   -4.05111697875092      2.31392135834048     -0.90876312145730
  C   -1.03336558576068      0.65579113934738      0.08457994497810
  N   -0.62509338503629      1.85320601881467      0.38381392272756
  C   0.53260175638161      2.39899225225898      0.72570518169498
  N   1.76650738260847      2.12667084410697      0.36052650419246
  C   2.37412259748727      1.01580160293648      0.00525319252414
  C   3.69895422941245      1.00694675097153     -0.47096432108491
  C   4.11904143300308     -0.31403332115657     -0.44635870101462
  N   3.16053012929394     -1.17201323503413     -0.01332183365026
  C   2.05609346992697     -0.43797257375252      0.22327966228316
  C   0.86277972766908     -1.11772971754759      0.39928027189167
  C   -0.45148677239560     -0.69769798567616      0.30487068965960
  H   -3.62750226400374     -1.36780442988758     -0.49631403133206
  H   0.42457221070417      3.34219727878430      1.25196375169251
  H   4.27255020100636      1.88509008243306     -0.71460946040215
  H   5.09428726614107     -0.69352566985782     -0.71258837768196
  H   1.00436284552958     -2.19087136051426      0.46459599435947
