35
Coordinates from ORCA-job ./opt_b97-3c_parallel
  N   0.87059027164629      4.23705844616053     -1.49028876582476
  C   0.69368744513358      3.17236720003503     -1.05041443182358
  C   0.45605311439051      1.88284931642810     -0.51447486369139
  C   1.62366414597452      1.23178863784586     -0.10520860469292
  C   1.94654933965792     -0.06719060058031      0.21499584445990
  C   3.28913613861176     -0.37374398848948      0.65670355353735
  N   4.18698666500911      0.56787563215730      1.09547817365373
  C   3.52491447554975     -1.73113304693851      0.47575539397211
  C   2.36762198201417     -2.29405343373084     -0.07661887945148
  C   1.35762293460024     -1.32545209187911     -0.20662539516493
  C   0.04668397824562     -1.65159423914269     -0.62504464215673
  N   -0.07471805777481     -2.86479573164818     -1.31362103837185
  C   -1.15806821926156     -1.03582151322942     -0.25414800976064
  C   -2.32209036418078     -1.82378791677404      0.02283961638469
  N   -2.50185033254988     -3.17439040807848     -0.17525938248445
  C   -3.29065762610910     -1.02356968651579      0.63562102020868
  C   -2.81718258192901      0.27722610256999      0.70436557684713
  N   -3.57478913550813      1.32175164851886      1.19776025334186
  C   -1.49140415606610      0.34558708210333      0.14380520558480
  C   -0.91835305439315      1.56650836809497     -0.24071551930932
  N   -1.75462677388442      2.66277842088473     -0.27130419527436
  H   2.47977019379761      1.90112266273853     -0.08551249366280
  H   5.05831319166218      0.20626589620816      1.44292801470120
  H   3.81866979506384      1.29945539189006      1.67859016988800
  H   4.42235003657058     -2.26520442875912      0.74722569195004
  H   2.24956322687949     -3.35184116314060     -0.25751815695607
  H   0.78051269142515     -3.15677942132688     -1.75280832612059
  H   -0.83086633708790     -2.87058708995816     -1.97875363260726
  H   -1.64901489146973     -3.71124471817672     -0.25316364982005
  H   -3.17419759749385     -3.59131494526336      0.44815104637853
  H   -4.24522949246144     -1.36869524787913      1.00428402857975
  H   -4.30239129279382      1.02895422656964      1.82936640347866
  H   -3.04734392349236      2.10332260688219      1.55428619391870
  H   -1.36457507705737      3.52652045264333     -0.60920797666991
  H   -2.70971053898310      2.50704723829876     -0.54542024204642
