31
Coordinates from ORCA-job ./opt_b97-3c_parallel
  N   -5.49073137297183     -0.66407488818615     -0.36991042989322
  C   -4.34805874417132     -0.52414673368123     -0.19392243567234
  C   -2.98399119357156     -0.28418038230151      0.00060378111735
  C   -1.99575856538444     -1.20586203622826      0.39234888465189
  C   -0.73979839867626     -0.59155063254707      0.36788281802491
  C   0.45315454184107     -1.32748995301105      0.55508231475352
  N   0.34677349987010     -2.52607712742612      1.17712283008322
  C   1.73199978254832     -1.05475666568508     -0.01596514832685
  C   2.52264139205123     -2.12066022405977     -0.49847688981402
  C   3.70453921741896     -1.61096477231633     -1.03990612233762
  C   3.71008875015713     -0.23551097319602     -0.84498337278784
  C   2.49651606210102      0.15791233642764     -0.22690604917603
  C   2.32058905155249      1.48006474144245      0.26080624296211
  N   3.46973579132984      2.19277735210325      0.44531025945157
  C   1.14100684247532      2.21430299073453      0.47129369323890
  C   -0.18387105612788      1.95035334094362      0.21359527167974
  C   -0.95411544665151      0.81008042200127      0.00859281425517
  C   -2.35171669012243      0.95498149218544     -0.23423027026693
  N   -2.99783329188017      2.11852700624547     -0.55624607421495
  H   -2.19896403772069     -2.25420857016768      0.53828034492558
  H   1.18310943467012     -3.01883184098158      1.42380998451668
  H   -0.49200336152641     -2.77305299778716      1.66515173732383
  H   2.19652313499946     -3.14681008116447     -0.57009743384730
  H   4.45740697172772     -2.18198213792029     -1.56074363728338
  H   4.47617812854242      0.44155555572876     -1.18928550538519
  H   3.42185721831612      3.13918126456910      0.77365896326506
  H   4.33068581922892      1.70359682088031      0.59755379790569
  H   1.32140395241191      3.23894780941188      0.78071774087052
  H   -0.79003158960301      2.85228871345486      0.25123096212174
  H   -3.98059815653183      2.02002858756750     -0.75418896563578
  H   -2.53468712950244      2.71804838416382     -1.21698584030597
