31
Coordinates from ORCA-job ./opt_b97-3c_parallel
  N   5.37624814706057     -1.14263567870594      1.00459581869996
  C   4.27372813061719     -0.94187263234355      0.68729463939636
  C   2.96650813012170     -0.63050238824652      0.30126702849401
  C   1.86906404851963     -1.48964100393641      0.21460239771078
  C   0.71812673976296     -0.76019300864053     -0.12967454959490
  C   -0.49929546766171     -1.41752032585472     -0.45013050670853
  N   -0.37467334225768     -2.72055195623839     -0.84094862218863
  C   -1.81634500855086     -0.91084339055904     -0.36927001961202
  C   -2.96189422207856     -1.69012726978966     -0.59188791124929
  N   -4.09722810119278     -1.15186336148378     -0.11060181173258
  C   -3.73408038144430      0.01551813858407      0.45368130145936
  N   -4.67790840246234      0.78112609302170      1.05290461658360
  C   -2.32735624301497      0.27784852950551      0.30150092632542
  C   -1.81156376194725      1.54414106042202      0.49377612667230
  N   -0.78790343114393      2.17714602263533     -0.03490696438507
  C   0.36754710482258      1.80100431073592     -0.53625689587189
  N   0.99615023909732      2.79230960532756     -1.25544038390395
  C   1.13179493619860      0.63174327570595     -0.27050449841158
  C   2.52697170999429      0.68052057617219     -0.03943720621367
  N   3.37271173232750      1.75477596432183     -0.10771666086369
  H   1.91214008560860     -2.53896744600084      0.45511846373846
  H   0.54135423451693     -3.09450709491182     -0.99619169773638
  H   -1.09979071302920     -3.38297910189387     -0.63960642176542
  H   -3.01306079278823     -2.65091226800995     -1.08432851164961
  H   -5.62827255898015      0.55014813441927      0.81882406302312
  H   -4.49820164668548      1.75355951114637      1.21825579296970
  H   -2.43117858805820      2.21349516103746      1.09014134924194
  H   0.42141577901099      3.59508477789020     -1.45342431865535
  H   1.61584001408974      2.50287645350478     -1.99325302839636
  H   4.21849938752766      1.66988115662300      0.43338220357977
  H   2.94110452721909      2.66385678036152     -0.05761420045572
