29
Coordinates from ORCA-job ./opt_b97-3c_parallel
  N   5.48830943924516      1.31904470407020      0.37784106915189
  C   4.35162884196566      1.11044065359527      0.23585869476090
  C   3.00308501386893      0.77568758210404      0.07640347078061
  C   1.90761554698073      1.62001398855846     -0.05271967854535
  C   0.72089158831680      0.86244000312578     -0.13700576138513
  C   -0.48952321741920      1.52759810693619     -0.28585423429404
  C   -1.81426863182083      1.12856648445162     -0.24699023439567
  C   -2.86510126751498      2.07005659200346     -0.29153687096500
  N   -4.07150522338297      1.55404626153587     -0.03181587723653
  C   -3.85334694279886      0.24090880279555      0.21874162118853
  N   -4.90050748532812     -0.55127526020209      0.53837015049992
  C   -2.47060515121412     -0.11814087322671      0.10816992725310
  C   -1.99970412813627     -1.38731523250630      0.39180702051514
  N   -0.89083170912152     -2.02550866760323      0.10518418874247
  C   0.33141420452280     -1.71915988194178     -0.28188772859201
  N   0.98871001176679     -2.80911171955776     -0.82438073999561
  C   1.11056946708755     -0.54582816152497     -0.10456220731179
  C   2.52361098788235     -0.57104572901780      0.02095612088135
  N   3.36068112752457     -1.64074831381434      0.06617932101423
  H   1.95069394738135      2.69693244644548     -0.07551633053562
  H   -0.37099261959097      2.59944845163745     -0.41395829299233
  H   -2.75030281763942      3.12799985099404     -0.48546785925576
  H   -4.83827898307534     -1.54219327711763      0.39998448485030
  H   -5.80979488733773     -0.14425170320861      0.40248969975747
  H   -2.71763526389835     -2.03710759166146      0.89372875340206
  H   0.38565258124088     -3.60036351068324     -0.98183043604772
  H   1.64666067264456     -2.62165722720198     -1.56368563062789
  H   2.95391011182995     -2.53651019561086      0.28190762844377
  H   4.27623134292076     -1.47595312627475      0.45218200033875
