35
Coordinates from ORCA-job ./opt_b97-3c_parallel
  N   -5.40903151105822      0.45606400224087      1.05093636200108
  C   -4.32833994575935      0.15401223027753      0.73635427153642
  C   -3.02011918934738     -0.13535263303725      0.33946537904342
  C   -2.33477008142313     -1.35708527135970      0.43855629173225
  C   -1.01511457632787     -1.18649787728434      0.01457890422203
  C   -0.20284849184187     -2.31032272619675     -0.32501009596971
  N   -0.90988416455604     -3.47656057304644     -0.52506857187512
  C   1.17013285821600     -2.41915162702344     -0.46880888672991
  C   2.23971443052941     -1.65060429397056      0.02149897371321
  N   3.41256362061143     -2.36579559875011      0.09914848863343
  C   2.31074752096813     -0.28584626808394      0.36654735673217
  C   3.43579263533877      0.24806953803923      1.03925390360260
  C   3.45189374996135      1.62467124024554      0.92726281242240
  C   2.34946891109428      2.01765573824156      0.15149990046673
  N   2.07386464945559      3.34314412317503     -0.14364561900270
  C   1.58403088312317      0.85343157728528     -0.18652983390502
  C   0.28689856814292      0.96340074914932     -0.72973954476506
  N   0.04894332805339      2.09331564988699     -1.49799290987807
  C   -0.86048892566998      0.20734813122261     -0.38072403350872
  C   -2.13150437434812      0.82316194459765     -0.20271970147015
  N   -2.50427755338360      2.13246910579300     -0.45733144332369
  H   -2.76797437167770     -2.27400773512172      0.80097970368995
  H   -1.82392413414580     -3.39906095265588     -0.93349970273214
  H   -0.39309321356508     -4.29383640176128     -0.79684803702409
  H   1.49368432340191     -3.36205206447078     -0.89837226358901
  H   3.36747679578801     -3.34327877367931      0.32503386591933
  H   4.25351379090211     -1.89203982945339      0.36817418635716
  H   4.16531310954516     -0.32161884991900      1.59465980383017
  H   4.16719689750045      2.29824546367402      1.37422204028322
  H   1.09666542740624      3.55227077436331     -0.28724182688329
  H   2.49798341847085      3.98662723160690      0.50588693312095
  H   0.84515543864134      2.42833841457808     -2.01483371053999
  H   -0.79083989065335      2.06446770574469     -2.05340295445728
  H   -3.35813084547355      2.39547315029871      0.01279300849993
  H   -1.77877711001930      2.81861877079359     -0.31497371175195
