32
Coordinates from ORCA-job ./opt_b97-3c_parallel
  N   5.50822124924871     -0.00031999598550     -0.25889504622250
  C   4.35830237930106      0.10054828942770     -0.10237957583422
  C   2.97034657166437      0.14975210591191      0.06142681746575
  C   2.18837365912204      1.24509530143436      0.47307460648654
  C   0.84243766143043      0.89138019118013      0.40318860367685
  C   -0.16381610517136      1.89763815343929      0.52986369302591
  N   0.04057389186656      2.86577569706150      1.45019155861578
  N   -1.18672424602792      2.09306383140322     -0.27639669708864
  C   -2.04968235432466      1.26818593829897     -0.81420450016470
  N   -2.72101756586839      1.73498811444202     -1.89159265087441
  C   -2.47297492817475      0.00942488531005     -0.27705184175046
  C   -3.83288188715153     -0.30492831631375     -0.14003984385583
  C   -3.94859356163646     -1.53104418380903      0.53299218126069
  C   -2.67156966164669     -2.01461956755390      0.76903611057550
  C   -1.71346926977436     -1.07930100218900      0.28441665928583
  C   -0.33758378226439     -1.39614869751542      0.13368646453105
  N   -0.03610709972237     -2.71984187506107      0.14726673843175
  C   0.75813875320068     -0.49999944619352     -0.01690818157848
  C   2.10071581283425     -0.92013230563000     -0.23730888545924
  N   2.55010037217008     -2.18697921846959     -0.59315036021807
  H   2.57739192771453      2.23440633083064      0.65024943951196
  H   -0.48144663426599      3.72101878931752      1.38076853340343
  H   0.84537799938807      2.83481176323711      2.04674216146997
  H   -2.65667310041145      2.70954137207230     -2.12683902532724
  H   -3.45823589845137      1.18555220198417     -2.29004406932598
  H   -4.65050903598944      0.35101466434810     -0.40011231086338
  H   -4.87140410750616     -1.99697456698861      0.84169498216278
  H   -2.44871406148300     -2.92747333572734      1.30154800562975
  H   -0.78398551922025     -3.38059973803576      0.23734704626094
  H   0.89534229116011     -3.02244286735302      0.38714492413404
  H   2.04333974593989     -2.59944169135541     -1.36305795732188
  H   3.54322366554975     -2.20476117301782     -0.77676084504386
