32
Coordinates from ORCA-job ./opt_b97-3c_parallel
  N   6.18460469643888      1.16850192435488     -0.94452087226099
  C   5.12351846828441      0.78174873980126     -0.66942126569464
  C   3.84170244998315      0.31885930625689     -0.32850444055729
  C   3.35300866892529     -0.97872897538678     -0.49760804308253
  C   2.00472641250397     -1.02224507891207     -0.08407797239156
  C   1.34598172794392     -2.25346781322277      0.00259083272137
  C   0.07061113468293     -2.67564132723176      0.26720504101355
  C   -1.19558126254977     -2.04802250600269      0.24826412600651
  N   -2.22988918007147     -2.91424495750478      0.36987156019303
  C   -1.53407661480101     -0.67386854241190      0.06930203315966
  C   -2.83683845062096     -0.26271822531309     -0.31927348076284
  N   -3.86588653366996     -1.06050805046869     -0.82005598063667
  C   -2.97923368467768      1.11577301377615     -0.06703935441069
  C   -4.11127829638221      1.86294033646338     -0.41266618384070
  N   -5.08234051752686      2.42702710338870     -0.71885157892420
  C   -1.78608872183932      1.57832282039540      0.50611865975785
  C   -0.86308239305688      0.52696711961595      0.56592734418287
  C   0.47175704389036      0.82015267758576      0.96463987349062
  N   0.62113654336543      1.82696071422430      1.84583174347164
  C   1.67151461897659      0.30292985230323      0.39992023052648
  C   2.81605932285628      1.09509352233532      0.25515611087993
  H   3.91468433692101     -1.81928234308276     -0.87204510415984
  H   2.02422798416863     -3.08527226913307     -0.16262070292113
  H   -0.00347175864093     -3.75286044274751      0.37340229767804
  H   -3.18315804795053     -2.58645632752144      0.33983801877317
  H   -2.06742642265519     -3.90342759529724      0.36748241539670
  H   -3.58709779669511     -1.63491037188988     -1.60313229847878
  H   -4.67778254503248     -0.51548343379531     -1.07439186023009
  H   -1.57776128846884      2.61813046183889      0.69425834530979
  H   1.53361094840742      2.09912158805231      2.15792082565039
  H   -0.17348688729727      2.22927535317579      2.30499814140172
  H   2.89666309628820      2.15275856005341      0.44899207353872
