32
Coordinates from ORCA-job ./opt_b97-3c_parallel
  N   3.75746170635807      2.61310288089858      0.73924446181962
  C   2.77812165585511      2.05120465011154      0.45970350672155
  C   1.54512814981810      1.41640354873105      0.14559484002752
  C   0.48036676168233      2.32983228765656     -0.00738766998838
  N   0.79895271047609      3.68389643779162      0.02911333317806
  C   -0.87903558588407      2.11581219794128     -0.29218815395148
  C   -1.79485447537923      1.09338504564284     -0.22229151642831
  C   -3.16593510753987      1.39640703721772     -0.39822443658492
  C   -3.92589195254971      0.26960107419231     -0.10313660569925
  N   -5.28071621431159      0.15301950200566     -0.17097646759052
  C   -3.04654691001034     -0.79053260439834      0.22706327564174
  C   -1.72816456896385     -0.35081371608983      0.13896768258768
  C   -0.64200990012153     -1.24632367005870      0.23135412168825
  C   -1.06166189484667     -2.58252681532255      0.52562384684512
  N   -1.41493016380101     -3.65789332397823      0.78228479738298
  C   0.74056506844714     -1.14433954148307      0.01680238797399
  C   1.52989860503704     -2.30337764872354     -0.08507652750026
  C   2.86891193768250     -1.93968695544820     -0.23693689818480
  N   3.91089203114048     -2.78247627024853     -0.44861432122230
  C   2.95855580245157     -0.53103409334157     -0.19891530095430
  C   1.68888623569240      0.01700882908635     -0.05515746383900
  H   1.71986287697007      3.93450626427311      0.34814234636565
  H   0.08463174385141      4.28956499480761      0.39286040335229
  H   -1.36130653344022      3.04934005579534     -0.56508278202507
  H   -3.54705842014697      2.37540922637840     -0.64413029636182
  H   -5.82503807607166      0.99674087224636     -0.19360787513928
  H   -5.70989891850008     -0.60234895485501      0.33311868480954
  H   -3.35591216282478     -1.79981569532213      0.44210631133890
  H   1.15436537788959     -3.31215955673638     -0.07580183256887
  H   3.78541548259746     -3.75724475779732     -0.24253435259019
  H   4.84210759197202     -2.43562437894517     -0.30449287245544
  H   3.87403257707025      0.03109938507260     -0.27837251184880
