31
Coordinates from ORCA-job ./opt_b97-3c_parallel
  N   5.46416451752946      1.03165980427115      0.63675889923330
  C   4.36556354097066      0.74116293268834      0.38921853577945
  C   3.04255651016392      0.38841060373817      0.07787454219532
  C   2.46295836061063     -0.87888741336123      0.24390107447346
  C   1.10290275722231     -0.80738996109901     -0.10235720934231
  C   0.32091159546565     -1.98319126062115     -0.31690184826879
  N   1.05712861159222     -3.11933757021912     -0.51713560613488
  C   -1.05817476945448     -2.16067242438442     -0.33633758530416
  C   -2.13243476484513     -1.41222701460073      0.16078708014848
  N   -3.26742996865372     -2.14332136365414      0.38547379898759
  C   -2.24570372412510     -0.02726112130029      0.45688256806120
  C   -3.35377593356354      0.49257479438144      1.16626882847635
  C   -3.40626537611946      1.87329723413047      0.99711438374868
  C   -2.36680192759593      2.24791918273068      0.14749533042068
  C   -1.60009882610855      1.10421738075573     -0.17691649081773
  C   -0.36230581509835      1.24117319748713     -0.84964922680041
  N   -0.24268846903568      2.25537402656714     -1.72494759783932
  C   0.84287813349813      0.55387929823396     -0.51236200520467
  C   2.05468771299260      1.25641859061860     -0.42254611268448
  H   2.97761315578541     -1.74607166602776      0.62292295649157
  H   0.58407339165985     -3.98837431945337     -0.68419277797127
  H   1.97633230238236     -3.03258538159888     -0.90955719862281
  H   -1.35269941456274     -3.15296294262868     -0.66535619572296
  H   -4.15807373001061     -1.68591813735438      0.32996349328191
  H   -3.26141695811070     -3.12992510804737      0.20525440557121
  H   -4.02523992348614     -0.08509121773786      1.78218803376493
  H   -4.10023876084899      2.54556757739072      1.47712201822369
  H   -2.08950547261791      3.26753447895203     -0.07383688005052
  H   0.64331626119326      2.46563539717901     -2.14477416395214
  H   -1.02339157904025      2.84991955161726     -1.93108882956480
  H   2.18834866901190      2.31797561394654     -0.55450706477624
