29
Coordinates from ORCA-job ./opt_b97-3c_parallel
  N   -5.86388739842684      1.03899755008626     -0.56480868420779
  C   -4.73593820481565      0.86052316353128     -0.34928994142491
  C   -3.37431623720220      0.63729484414310     -0.08522254919434
  C   -2.42077570252933      1.59896539322641      0.25371612610932
  C   -1.15327573097369      0.98493530639290      0.35486476469866
  C   -0.03819922707448      1.80792764733169      0.52155392455321
  C   1.30509549331514      1.62448095227822      0.30782543333053
  C   2.21153737968178      2.70907030361305      0.33480387969507
  N   3.44190798322625      2.39763593888024     -0.07258929917167
  C   3.40223913865236      1.07741493536051     -0.38009616701864
  N   4.52113137813529      0.47278484159354     -0.81017900838110
  C   2.10807234007412      0.49244566309125     -0.14152211916352
  C   1.92009273721836     -0.86478590912723     -0.15104053511244
  C   0.88233697710112     -1.75461535438809      0.16851029081705
  C   1.33977253184646     -3.09225249673683      0.29605894102531
  N   1.67988159794921     -4.19983439853979      0.40477597905295
  C   -0.52388314081879     -1.59038335286628      0.35469606087380
  N   -1.19090908899390     -2.70773772025131      0.70887945144925
  C   -1.35503780339400     -0.44145155827722      0.14514703605726
  C   -2.72007738343160     -0.60999358910591     -0.13382368772612
  H   -2.60359930438800      2.65593396910051      0.36097713808880
  H   -0.29895236515346      2.83236037885447      0.77021778148646
  H   1.96558577483335      3.72365214635166      0.61665314124083
  H   4.48545318461127     -0.39965245622409     -1.30262807908478
  H   5.31409594348618      1.06352159522270     -0.98928988928112
  H   2.82883735274391     -1.41543642592904     -0.37162284094681
  H   -2.14184611485007     -2.64865306865185      1.01664661487395
  H   -0.72751965672664     -3.59757034435887      0.78202345082701
  H   -3.20718942499614     -1.53015751280153     -0.41315865096617
