32
Coordinates from ORCA-job ./opt_b97-3c_parallel
  N   6.05513342163375      1.74270450708172     -0.23809891530120
  C   4.96225851546720      1.34712721819299     -0.15955186240877
  C   3.68417653029705      0.79050775519326     -0.07043762998021
  C   2.44984484934491      1.43444822598878     -0.03361678091493
  C   1.40151018964946      0.49357862241397      0.02268520953600
  C   0.09062254586499      0.96859422087847      0.05386072569451
  C   -1.17218237994829      0.41589162796853      0.05756956625060
  C   -2.32519365156898      1.26378105336292      0.05255926828562
  N   -2.35853125502409      2.60920165721415      0.06830588123961
  C   -3.49497697894470      0.47453604771335     -0.03912120451326
  C   -4.80325297918672      0.94925386688815     -0.09272470658780
  N   -5.89877710634203      1.34600753593437     -0.13702876164366
  C   -3.09964821896765     -0.87777218772581     -0.07438147422047
  N   -3.97953658725597     -1.89585405551166     -0.12788365705533
  C   -1.66912583159338     -0.96419040296733      0.01664293070082
  C   -1.06182586011427     -2.19783840550945      0.11655281469429
  C   0.24364967219120     -2.68275484164477      0.22282190748040
  C   1.50193528423688     -2.11445509077950      0.16700969333302
  C   2.01295908719716     -0.82649514453161      0.03957780710149
  C   3.42545519880918     -0.61179568471584     -0.03394943543202
  N   4.40817963770929     -1.53545988821667     -0.02964779397732
  H   2.31562350228376      2.50474861391369     -0.05904228657076
  H   0.08525545641349      2.05416124896377      0.03356664066945
  H   -1.55266331004911      3.13054982186738      0.35795084449953
  H   -3.24359261565966      3.06581338480316      0.20296668071685
  H   -4.94245560093400     -1.68461609454017     -0.32368269500974
  H   -3.67197875326836     -2.80859575424167     -0.40630501154844
  H   -1.77250126007000     -3.01779980834417      0.15596981628850
  H   0.27504481810770     -3.76029201720691      0.32958864362900
  H   2.27423705899508     -2.87262632763019      0.26045421580837
  H   4.20483315003757     -2.48668101998984     -0.27359717302253
  H   5.34530787928858     -1.22894258972315     -0.22746566694164
