32
Coordinates from ORCA-job ./opt_b97-3c_parallel
  N   -2.93344676325813     -2.63218142136915      0.95758756182866
  C   -2.06569993662615     -1.94414979607591      0.60253482238866
  C   -0.90743545901520     -1.19846144819873      0.25442389982296
  C   0.24938858823999     -2.01705225762436      0.15654236882470
  N   0.07071228203030     -3.35927169969104      0.41060002628071
  C   1.57439392369786     -1.70043844070159     -0.20579805102309
  C   2.39985059917941     -0.60160147195120     -0.17079793923379
  C   3.77711150443798     -0.73603170396647     -0.45010766753222
  C   4.42735484448445      0.46134342397985     -0.14726142095570
  N   5.76960628519746      0.69315954901130     -0.21465654762864
  C   3.46427867597907      1.38998239650161      0.31113417975423
  C   2.19960329395599      0.80135662675285      0.27838974425590
  C   1.05743996275157      1.55691991826584      0.48679014790910
  C   -0.30026289132401      1.36978734631958      0.29167804867913
  C   -1.14633179400563      2.50097217402588      0.26841681444253
  C   -2.43176890964824      2.10982736995788     -0.07478634750986
  N   -3.50333332653908      2.89394781658954     -0.33097148963834
  C   -2.44200232563494      0.68336579847944     -0.21035711922998
  C   -3.60284366555458      0.02848622916071     -0.62896979948087
  N   -4.62551255430170     -0.36889727725440     -1.02067688882486
  C   -1.14694564325635      0.18148764851239      0.04303274363282
  H   0.82121366797131     -3.98379296992052      0.18483240062327
  H   -0.85094414301765     -3.75837464432399      0.36950676758212
  H   2.12602090264149     -2.59282654744828     -0.48789630402316
  H   4.25384919933987     -1.65193113024324     -0.76412782413271
  H   6.31470892260562      0.09303218604143     -0.80786678715353
  H   6.07497904735798      1.65013467964408     -0.21385628779714
  H   3.66100669703406      2.41656713702844      0.58124209276032
  H   1.29188262220949      2.58578341565074      0.74466059641553
  H   -0.80857483010174      3.51609199272212      0.40479360200523
  H   -4.40704465314060      2.45876179788239     -0.40679909014219
  H   -3.49900366498897      3.84517984924283     -0.01307274349946
