25
Coordinates from ORCA-job ./opt_b97-3c_parallel
  N   -3.63964595608395     -2.92468380436677      0.00100610373356
  C   -2.72893270822129     -2.20710411543210      0.00060522225409
  C   -1.55046839784950     -1.39681198531655      0.00012197419734
  C   -0.38421100462654     -2.14511848692797      0.00055774460612
  C   0.99839308061360     -1.88118907796861      0.00032752224493
  C   1.77059148777997     -3.08674410401465      0.00106491728336
  N   2.29452956556234     -4.12095292322362      0.00169262740071
  C   1.75801713374837     -0.71278286894459     -0.00046911731330
  N   3.10037574266665     -0.85581277901300     -0.00052383010769
  C   3.64291429787703      0.36896724678164     -0.00124428701381
  C   2.68342007252767      1.38941486191752     -0.00166517481679
  C   2.91978764725378      2.76946186058568     -0.00243982435940
  N   3.15067121157923      3.90748254023026     -0.00297302266091
  C   1.41127858487805      0.75667367238737     -0.00121801959941
  N   0.33010800367393      1.48898667010071     -0.00152167238976
  C   -0.95786976657307      1.23796445189661     -0.00133244022132
  N   -1.79619522717132      2.29231257490184     -0.00184720846311
  C   -3.02542149898420      1.75194477631111     -0.00158438602709
  N   -4.13395096859268      2.47949701191056     -0.00195519124816
  N   -3.08492286609755      0.38245615771977     -0.00090317185687
  C   -1.81794375364306     -0.00366841870697     -0.00069758850621
  H   -0.58544912288113     -3.20728461474815      0.00122694216573
  H   4.71468447304495      0.49688213748981     -0.00144160826676
  H   -4.07699562529508      3.48186499987755     -0.00240821424817
  H   -5.03062257448621      2.02775172095256     -0.00170239428709
