24
Coordinates from ORCA-job ./opt_b97-3c_parallel
  N   -1.22322504964958     -4.15310375603982      0.00029584571390
  C   -1.35658717808432     -2.99886320165446      0.00026913238075
  C   -1.51155377105148     -1.60387458148469      0.00009415027215
  C   -2.74959489952370     -0.93839269460540      0.00013844986702
  C   -2.51344654631602      0.42862665696318     -0.00009995653069
  C   -3.49264408319628      1.43434689403882     -0.00018549051772
  N   -4.32118443591994      2.24746376996113     -0.00021965607447
  C   -1.09701686705317      0.67679863157207     -0.00032109119580
  N   -0.70607024802386      1.92710221001993     -0.00076280817385
  C   0.45360830782331      2.55846981783080     -0.00105535602434
  C   1.79742492782278      2.18230346627117     -0.00062872068174
  C   2.49190689240590      0.98311233747846      0.00001136438802
  C   3.89784960559907      0.93999465477344      0.00038661460401
  C   4.26142784654451     -0.40261891093596      0.00078151992297
  N   3.19271162073474     -1.22383335394615      0.00066137956119
  C   2.08789053500580     -0.43579807327691      0.00021709128529
  C   0.86573881034400     -1.08640431982978      0.00009420081581
  C   -0.45012324182682     -0.66043443326464     -0.00012366373626
  H   -3.71449898548191     -1.41611396011338      0.00031142101507
  H   0.32105222470362      3.63669887837967     -0.00162246747583
  H   2.45059302455716      3.04920411254796     -0.00083077230858
  H   4.55385962835188      1.79603506722420      0.00035357971461
  H   5.26079163244726     -0.81111617131653      0.00114609092739
  H   0.99385952178708     -2.16350881159308      0.00031703595110
