36
Coordinates from ORCA-job ./opt_b97-3c_parallel
  N   -1.79954658802258      4.17331243497297      1.00988688790338
  C   -1.49611839275810      3.09676763616931      0.68352515800681
  C   -1.16986754676143      1.77303018349050      0.30250755700836
  C   0.10899494282396      1.66760696386099     -0.28280806833069
  C   1.04410967897089      0.67242426358693     -0.37720406465672
  C   2.40058341429860      1.06051336234529     -0.68585012655598
  N   2.78346461245004      2.19954127208316     -1.29680343943401
  C   3.27403943892007      0.12703001974024     -0.11702372950856
  C   4.66564997231131      0.18988263445287     -0.12292143994702
  N   5.83061250602611      0.24238493624593     -0.12378491904397
  C   2.48823872036727     -0.90306602203696      0.48174870991305
  N   3.07078006458451     -1.96377463319141      1.10547033599681
  C   1.11483010324210     -0.66144671932905      0.23385863249796
  C   0.11791458036299     -1.65194539932697      0.28013211764921
  N   0.54179325594220     -2.92252826529153      0.66463620972682
  C   -1.23889639756150     -1.55686750955427     -0.10156243377941
  C   -1.90248068450381     -2.69888438774140     -0.62882419846180
  C   -3.22723445746698     -2.41179910719064     -0.88029843583434
  C   -3.47291795202213     -1.09166986340629     -0.46481212303091
  N   -4.72131134876191     -0.50604824129646     -0.53655345689579
  C   -2.24851836906429     -0.51485099686126      0.00416175660102
  C   -2.19823136437880      0.81687534807097      0.48624706272939
  N   -3.36596350272113      1.29088464192954      1.03000564210448
  H   0.49150206303673      2.64303915570097     -0.56410232596784
  H   3.76454449075524      2.34780718813817     -1.45721444718532
  H   2.16837729405659      2.63088002038521     -1.96141205717203
  H   4.03502187878320     -1.84118092098180      1.37027341012305
  H   2.50662282636892     -2.44878159242064      1.78417997684600
  H   1.38050098165209     -3.26810140293113      0.22086902181760
  H   -0.19208517690713     -3.60797981547954      0.69501500459068
  H   -1.42134177311898     -3.62363911716572     -0.90680907438980
  H   -3.95399087989142     -3.06847202423697     -1.33317299549323
  H   -5.31339338218954     -0.90002096955332     -1.24984028729934
  H   -4.72593093743327      0.50291031020044     -0.54414792800286
  H   -3.36843658987199      2.21915522799001      1.41975793737815
  H   -3.95119355011359      0.62683125382905      1.50571509359762
