33
Coordinates from ORCA-job ./opt_b97-3c_parallel
  N   5.39310973182113     -1.47492733818091      1.09470455058464
  C   4.31709947666538     -1.18230562154934      0.75663071778239
  C   3.04874124481354     -0.76587501105560      0.34410971895129
  C   1.87232273172221     -1.51820829362617      0.28977044538256
  C   0.79965010680300     -0.69706401889237     -0.10089492064997
  C   -0.48805431386680     -1.24326478331759     -0.36326130049883
  N   -0.50570220432079     -2.57826941191232     -0.72850762894373
  C   -1.72839938742954     -0.60138321817054     -0.24839101970588
  C   -2.99249107104177     -1.24786089218021     -0.35798613696098
  N   -3.28188179570214     -2.45462691471370     -0.92357233290630
  N   -3.99515532205093     -0.58081040955735      0.25812861128200
  C   -3.44393787595445      0.53269597413622      0.75681596289873
  N   -4.22592722180423      1.43510994713183      1.39256839751116
  C   -2.04899293744778      0.65807487824534      0.42065209218544
  C   -1.43824673331784      1.89032296017671      0.42341635698611
  N   -0.41312391776023      2.38213020264923     -0.25350059706238
  C   0.70126286597928      1.85001480521737     -0.69164744679761
  N   1.43663335082816      2.70013732488524     -1.49179512729131
  C   1.34576945878465      0.63340675480967     -0.31443657058094
  C   2.73759597342022      0.56018052349851     -0.07327897926407
  N   3.68614114115334      1.53938381283439     -0.20820747315549
  H   1.81366805655624     -2.55153921968428      0.59078305297595
  H   -1.21415374577691     -3.15960227413940     -0.30584962647524
  H   0.39566456888891     -3.01681016885297     -0.78905167097022
  H   -2.71990906561756     -2.72182673969681     -1.71574893785678
  H   -4.27031613456386     -2.61301577456953     -1.03787493471863
  H   -5.14784196369223      1.11284507701572      1.63094826701772
  H   -3.80427194254056      2.06481233414348      2.04985158666494
  H   -1.97796547073681      2.67181915112652      0.95552466775108
  H   0.93922588934334      3.52728138391404     -1.77948218730079
  H   2.01971922558356      2.27626536688916     -2.19381407018481
  H   3.34320781804068      2.48650121506299     -0.23352418957395
  H   4.51452270222030      1.41400473966215      0.35149502472332
