32
Coordinates from ORCA-job ./opt_b97-3c_parallel
  N   -5.90644537789464      1.15282347533823     -0.71481289024692
  C   -4.79463155114679      0.89087135375553     -0.49351821366094
  C   -3.45613434492807      0.56942512251239     -0.21985897752738
  C   -2.37813529059376      1.46001219314782     -0.17062625611671
  C   -1.19360270752630      0.73762862315081      0.08923729811012
  C   0.03575688534015      1.40383071232720      0.23334045708354
  C   1.34376115743468      0.99767303219398      0.21901128209766
  C   2.41709762772449      1.96105551836329      0.30466415106520
  N   2.25698285737645      3.27482546714512      0.63621486722887
  C   3.60758963487168      1.36927598746711     -0.08876901044238
  C   3.35021840503797      0.02795308616064     -0.41921234554451
  N   4.31471728857093     -0.84178787773693     -0.83409752240439
  C   1.96642773509626     -0.26020446634446     -0.20712573290840
  C   1.41290040806764     -1.53462640765870     -0.29546296495851
  N   2.08661615218650     -2.48197059273130     -1.07184149860905
  N   0.43166825500342     -2.07116456176328      0.42385987895215
  C   -0.78963044914276     -1.75030668471501      0.72287825674001
  N   -1.44860957224395     -2.64111930725264      1.52428062596653
  C   -1.57840256399601     -0.64498125187832      0.24683982259312
  C   -2.95844606996103     -0.72540889398563      0.06766988852859
  H   -2.43555394877883      2.52601920483272     -0.32473894868510
  H   -0.09411475616818      2.48014827979302      0.30541589777163
  H   1.51957363953231      3.49824381916869      1.28073245262484
  H   3.09644498409262      3.80226641818563      0.79813317636316
  H   4.57521144533824      1.84640635521779     -0.12864436740773
  H   4.09525098991296     -1.82253276249999     -0.73381506534244
  H   5.26007310481552     -0.59685822000638     -0.59249175298175
  H   1.59716479411102     -3.36287461965683     -1.09592432112858
  H   2.34335717597734     -2.15740652000230     -1.99137442679381
  H   -0.89594148727708     -3.38126854863872      1.92120131659145
  H   -2.21276875105276     -2.29856122559086      2.07641635981434
  H   -3.55273053047666     -1.62439618799929      0.09915280503299
