37
Coordinates from ORCA-job ./opt_b97-3c_parallel
  N   -1.24078296575475     -4.34354761990404     -1.35951290275832
  C   -0.95001473217686     -3.29170116004492     -0.94853527018781
  C   -0.61313034904055     -2.01079339206057     -0.44887164738296
  C   0.72445621719194     -1.92760085658723     -0.01867616933892
  C   1.59955116561835     -0.90693879108988      0.24135715627296
  C   2.94130863450828     -1.22896406220036      0.68663098053862
  N   3.32427125327308     -2.45921563386632      1.14316434164805
  C   3.76269192332058     -0.13584325541386      0.49677458023628
  C   2.98475881986546      0.90369395254203     -0.05308375709312
  N   3.51932088875742      2.13690047883414     -0.34615429058671
  C   1.63015206173190      0.48259802366353     -0.19296544659231
  C   0.58598395001808      1.33392341521314     -0.59425448101763
  N   0.98956567794262      2.47682935411603     -1.31978256550356
  C   -0.77006008400005      1.31526965139228     -0.20756461031579
  C   -1.45096012938792      2.53778372846039      0.09380204367410
  N   -0.99929396691767      3.83390176860063     -0.07561553802828
  C   -2.69117589558426      2.25434136272419      0.67106485950318
  C   -2.86565911462891      0.87796871070698      0.68800860705741
  N   -4.02937877049988      0.28026750582400      1.12704230385192
  C   -1.69660101256819      0.23264293276604      0.14257693081933
  C   -1.70740866592507     -1.12088002804235     -0.23590643321395
  N   -2.95401223490188     -1.72166350117196     -0.31646725175592
  H   1.17731797678908     -2.91101866926662      0.06677612427003
  H   4.25369299446800     -2.52500085303419      1.51890198323257
  H   2.64749300968531     -2.97666785905285      1.67575975223105
  H   4.80799248511628     -0.06169740308931      0.75635375141079
  H   2.87606840495298      2.91296343461097     -0.30791060830336
  H   4.39428730228155      2.32978287823161      0.11275182684196
  H   0.23910726581873      2.86001658677724     -1.87300435661273
  H   1.78235586581665      2.29126681559048     -1.91433480660364
  H   0.00387065835359      3.94026940977856     -0.10532373844455
  H   -1.43458505244415      4.49321783876202      0.54924938663222
  H   -3.39625297465853      2.98666183185961      1.03524498936445
  H   -3.93677373347883     -0.68404088956137      1.40695539788669
  H   -4.54645474391235      0.83490851769317      1.78959158024535
  H   -2.96952287818420     -2.67349043669668     -0.64413086143434
  H   -3.69716855754633     -1.15859104716457     -0.69548251754306
