35
Coordinates from ORCA-job ./opt_b97-3c_parallel
  N   5.98797664628513      0.24826542693484     -0.84981847710161
  C   4.86558234526034      0.10885414987440     -0.57024634188123
  C   3.51141492883985      0.01874317121228     -0.23727466717992
  C   2.74834903420142     -1.14562371839088     -0.00414702994079
  C   1.41042251590433     -0.80510033761119      0.20088239404882
  C   0.45344814814221     -1.79985733019245      0.58061357962926
  N   0.99678614252270     -2.87787971615585      1.21207362453652
  C   -0.91552905252382     -1.87504804608513      0.26661852869368
  C   -1.54316895241965     -3.08981851051687      0.60489196509724
  N   -2.03857233011224     -4.10878826519322      0.88445138583123
  C   -1.78856944778245     -0.97444699389453     -0.46243740856523
  N   -2.72928269640899     -1.61182250730673     -1.25919431198418
  C   -1.94571240683029      0.39156804855978     -0.28209591052842
  C   -3.20231734017235      1.07537663574277     -0.45954068940367
  N   -4.36825428843532      0.57785160755290     -0.93554003405504
  N   -3.18409375327488      2.33909022474115      0.00337210007705
  C   -1.94203121091038      2.54343589212066      0.46794080604827
  N   -1.59539885601782      3.75815181191511      0.94966887022653
  C   -1.08557201270565      1.40389410831332      0.31748601915875
  C   0.28353734836729      1.53097663442845      0.36634241409093
  C   1.31943454208126      0.64124727432946      0.12070761192212
  C   2.63957505008515      1.12137467621935     -0.14657765607946
  N   3.01257708930964      2.43377905594877     -0.27124701568221
  H   3.14392559223231     -2.14631400907562     -0.05867090354255
  H   0.41867916467553     -3.65321365534126      1.48591755451844
  H   1.85623589830823     -2.75466003523347      1.71034710029863
  H   -2.98051816095311     -1.11800070592437     -2.09997504046754
  H   -2.56429452350966     -2.59063810541287     -1.42657300421136
  H   -5.17571560776472      1.12787795439724     -0.68836458106437
  H   -4.48790816630724     -0.42305396521328     -0.88333351852638
  H   -2.35321835813742      4.40694129262314      1.07494211674772
  H   -0.86506785956580      3.81270213813664      1.63565997067288
  H   0.62497392850631      2.54343537090080      0.56946322598269
  H   3.96278776243370      2.57600096368972     -0.57505451397488
  H   2.36813407717708      3.03955275160694     -0.74886655449204
