30
Coordinates from ORCA-job ./opt_b97-3c_parallel
  N   -4.82012954694617     -1.02907958496533     -0.36742805363665
  C   -3.69813152563656     -0.77329552645335     -0.20924394222315
  C   -2.30275212992688     -0.52953521165531     -0.03192295719083
  C   -1.55929945665972     -1.74028023473787      0.10821506462892
  N   -2.30813296731556     -2.90507337993495      0.25917836105792
  C   -0.18169859885692     -1.97868286363684      0.13651165740352
  C   1.01529642314783     -1.28589509172106      0.06691310950419
  C   2.22834088157405     -2.01514854580372      0.04910169236771
  C   3.30788281602068     -1.14043536130441      0.00583385075495
  N   4.62998879174266     -1.44450911533855      0.02320721361706
  C   2.78701399500826      0.18658079982840      0.00703618255433
  C   3.58626752066127      1.32864681807771     -0.03812485870769
  N   4.29625166405138      2.25167263010924     -0.08257012939839
  C   1.36924611822818      0.13420577723640      0.04167733337220
  C   0.62288572624885      1.29714823359805      0.07875890549931
  C   -0.72010307981477      1.61721087583859      0.08376075887745
  C   -1.09005893281755      2.97634545336203      0.09742570182857
  C   -2.47584602069531      3.08407687852105      0.02163670768999
  C   -3.02371912050687      1.80741505939016     -0.04614575599795
  C   -1.99363316101317      0.84055046724824      0.00173720713791
  H   -1.87176380858680     -3.75104491477938     -0.06173275817729
  H   -3.28685827808359     -2.86573905479902      0.03048496245722
  H   0.01379736908726     -3.04316179936469      0.22697479779553
  H   2.29432669391010     -3.09180250805396      0.07427785608566
  H   5.28278120631640     -0.72096618483077     -0.22487559724249
  H   4.90862551324058     -2.37321007341435     -0.23588357778211
  H   1.24778986742497      2.18495734027545      0.09935330404924
  H   -0.38507852881391      3.79128929610599      0.14476214092624
  H   -3.03895108504785      4.00444167309333      0.01655222266955
  H   -4.07569147974191      1.58531870440843     -0.10018235262052
