30
Coordinates from ORCA-job ./opt_b97-3c_parallel
  N   -4.09757898193423      2.73156592843463      0.01240462647879
  C   -3.50756058002842      1.72714602971094      0.00028008389856
  C   -2.90607151055743      0.47003381192586     -0.00891545778205
  C   -3.62766049544363     -0.75185352887476      0.01208567886995
  N   -4.96776460323305     -0.84032754619366      0.00028669614481
  C   -2.71123584879344     -1.81176221222137      0.01296920790157
  C   -1.40072682636971     -1.31755301738843     -0.00460266994876
  C   -0.33521012885869     -2.19747839763288     -0.03147057654727
  C   1.06413520014979     -2.16227930095399     -0.04356028392957
  N   1.64065539563986     -3.40618948931063     -0.14196423902500
  C   1.98008781985355     -1.06505038425942      0.00766382181807
  C   3.34783704055540     -1.46460724859984      0.06045049391268
  N   4.40993990002431     -1.93325541250425      0.10995129850666
  C   1.82751695978442      0.32466575605671      0.01421306115514
  N   2.96579177202569      1.04301700241598      0.04339968946601
  C   2.62149028470481      2.34979678218329      0.02887794927519
  N   3.57921866754969      3.28676230421237      0.07185892110631
  C   1.22862077429069      2.53993285560513     -0.00808244521677
  C   0.64827999329162      1.27681969595251     -0.01555312962540
  N   -0.67089990274879      1.17529850141710     -0.02856576055431
  C   -1.51604305619109      0.18625187988150     -0.01526816247953
  H   -5.52265882336230     -0.00933164747316      0.10703790751094
  H   -5.42367546715154     -1.71961209437957      0.15504628108759
  H   -2.97328121963547     -2.85869644561540      0.01342034002526
  H   -0.69434667538896     -3.22232552267240     -0.06007054173176
  H   2.62478221486344     -3.51119827130551      0.03536580725553
  H   1.07599007845662     -4.20659490336475      0.07209757591930
  H   4.53714546500742      2.99259405336158     -0.00107205344600
  H   3.36442643019295      4.25445611786772     -0.07451106352480
  H   0.67575697280648      3.46364861642472     -0.01687846752112
