34
Coordinates from ORCA-job ./opt_b97-3c_parallel
  N   -5.54043438591043     -0.60184251957018     -1.01437990591818
  C   -4.46533458440078     -0.31305756041753     -0.66904205859299
  C   -3.15552683486293     -0.03774972858158     -0.26647508698659
  C   -2.61683227035704      1.19680970450685      0.15479011491620
  C   -1.24851161018190      1.03865521539129      0.35558722176021
  C   -0.42504053075995      2.14449833734034      0.76069719543578
  N   -0.94796111960723      2.96476653432374      1.70445271287394
  N   0.71075769485587      2.54366947307081      0.24200982275384
  C   1.61089039536018      1.89220668454101     -0.47604952739682
  C   2.05628102187432      0.58917636662952     -0.44539176439485
  C   3.40370185712937      0.29968575071817     -0.86766039583112
  N   4.19749187220883      1.11468978976867     -1.62560152857675
  C   3.83255495808804     -0.86696166273348     -0.24229761106126
  C   2.77124393818433     -1.37885833830533      0.51369638479043
  N   2.84666920889297     -2.56336238526357      1.21787350636292
  C   1.60716518278851     -0.56829284292570      0.34095215986037
  C   0.29567283284029     -1.05054248949505      0.45977457604057
  N   0.10692650638292     -2.33117313336617      0.91231309066558
  C   -0.90644105144428     -0.34594605247816      0.11345865832164
  C   -2.11141321588044     -0.98643432295663     -0.26866758159660
  N   -2.29259020150422     -2.34904068600090     -0.55627767241899
  H   -3.16220269063006      2.12539457482253      0.19986613900390
  H   -1.83940664507958      2.75690663965324      2.11197602203592
  H   -0.54890383482790      3.87898709778274      1.82516308831287
  H   2.21318426129005      2.57245948458798     -1.07430615571460
  H   3.74149406511133      1.67185293786842     -2.32641700208450
  H   5.05901824260244      0.71113035863201     -1.94896404083519
  H   4.81974806863585     -1.29957174618434     -0.31134694762937
  H   2.31743681569655     -2.57887773390567      2.07634100014103
  H   3.78594172922105     -2.89972898743611      1.35573857997580
  H   0.82911436380903     -3.00726120630914      0.71694305286069
  H   -0.83405056645238     -2.68968963287228      0.82820503841548
  H   -3.24845933165589     -2.54314436964910     -0.82176595011931
  H   -1.67967836871675     -2.67744525418673     -1.29014132827021
