29
Coordinates from ORCA-job ./opt_b97-3c_parallel
  N   6.27096772775185      0.36065843465117      0.64937576820169
  C   5.11977069600783      0.29897109479085      0.50638865433946
  C   3.72635152758094      0.22919995052682      0.33320871138939
  C   2.86014924137894      1.32153557573165      0.13157655289729
  C   1.54359398809812      0.85457788058358      0.00464818205231
  C   0.48326185495985      1.74476517025567     -0.13046494824311
  C   -0.88639962562675      1.61408194931517     -0.15610071916669
  C   -1.66199170448134      2.80218391562426     -0.09231004205397
  N   -2.96277013834384      2.58535762229380      0.02407681125500
  C   -3.11275585098049      1.23487087614521      0.00109937108834
  N   -4.38361375238136      0.74134558961133      0.11465771768273
  C   -1.87754178073770      0.53500965304560     -0.14663541520335
  C   -1.80957906866230     -0.84944572477697     -0.40898712569013
  N   -2.98010190568689     -1.44917944722076     -0.75307936210077
  C   -0.69353795218427     -1.75986979772712     -0.29765087776635
  C   -1.04331515663568     -3.12375531656411     -0.50007331053437
  N   -1.36516300348016     -4.22726846122592     -0.67842065088860
  C   0.66159215639820     -1.61383394731977     -0.01391918372637
  C   1.59369342346798     -0.59319173350064      0.11867026776106
  C   2.95049316264751     -0.93496928298836      0.32369578859214
  H   3.16094518882551      2.35663676743588      0.09387429185466
  H   0.80354815344798      2.78174043645147     -0.16429976208116
  H   -1.26002483165496      3.80567945242390     -0.09170375134953
  H   -4.49115619722484     -0.12863291955864      0.61250942727004
  H   -5.04143809833693      1.45140624501830      0.39824569774201
  H   -3.71658472173638     -0.88824884907434     -1.14753429265079
  H   -2.97869114034013     -2.42193203208562     -1.01117947625297
  H   1.13930737845829     -2.58366355231392      0.07200949667217
  H   3.32866392707117     -1.93879970874795      0.43535097121053
