36
Coordinates from ORCA-job ./opt_b97-3c_parallel
  N   1.10870506417032     -4.45641313381196      1.18788819689995
  C   0.84429373507134     -3.37911768191971      0.82932335600907
  C   0.54101131407854     -2.06645026837862      0.39245185638417
  C   -0.80843316352020     -1.91636491091892      0.01918272580652
  C   -1.66207760785165     -0.86831721529825     -0.20604759506205
  C   -3.02265602149347     -1.15692894787287     -0.62201356260359
  N   -3.45552506683434     -2.37674855193562     -1.05141366698670
  C   -3.80762392453603     -0.03363190596846     -0.44892529497556
  C   -2.98981351831553      0.99305563484349      0.05892289225293
  N   -3.47545818297948      2.24841292344809      0.32073629177517
  C   -1.64407418977799      0.53057590737617      0.19671526297863
  C   -0.57465283316446      1.35679537990108      0.57340696256544
  N   -0.93341071298365      2.54042213977033      1.25398639587446
  C   0.78594884035818      1.26405921471813      0.21002313969069
  C   1.54891781673791      2.43016594855349     -0.08571137181066
  N   1.20478354133058      3.75398416854521      0.04567795004954
  N   2.75933302720335      2.15241554632859     -0.60738894788959
  C   2.86278449562395      0.81836626499807     -0.61146255406148
  N   4.04571548512932      0.26693363726908     -1.02363497908765
  C   1.68242281347043      0.15806983588821     -0.12825325515104
  C   1.66121640035967     -1.21013141469691      0.19307291473224
  N   2.89132315124270     -1.84642921207883      0.23101028487593
  H   -1.29863751222297     -2.88200342049867     -0.05622653912562
  H   -2.80314423344769     -2.94664206510105     -1.55969232552625
  H   -4.39080293549928     -2.42096105898101     -1.41481341248077
  H   -4.85280795818830      0.06694229670619     -0.69904955217588
  H   -4.35300831235825      2.46246060848147     -0.12312152071231
  H   -2.80571677092647      3.00127127298860      0.27065799167577
  H   -0.16208556747588      2.93388395155316      1.77094880308892
  H   -1.71431819213487      2.39957996273975      1.87635624976209
  H   1.79192477631479      4.35115862579523     -0.51520387486855
  H   0.22211883662387      3.96762830099416     -0.02281729114093
  H   4.60491614059604      0.90714477510314     -1.56447523485515
  H   3.99440474725807     -0.66958490733560     -1.39243560513158
  H   2.88236674943713     -2.80883935720242      0.52728925479065
  H   3.65341307690450     -1.31926992740291      0.62563504103260
