28
Coordinates from ORCA-job ./opt_b97-3c_parallel
  N   -4.12779719721931     -1.76887641329625      0.30895677788086
  C   -3.07666538739561     -1.29060257744331      0.17454214587459
  C   -1.76231677128958     -0.76491773541129      0.02733098426651
  C   -0.77846997944801     -1.77253328089395     -0.05312094374460
  N   -1.22682947007616     -3.08875365715450     -0.11573498488250
  C   0.63126671445427     -1.70053794048822     -0.13709150075162
  C   1.63468324633199     -0.76843515411210     -0.05835843398052
  C   2.98821960532005     -1.19473138550922     -0.09962733547560
  C   3.82339741837126     -0.09382209900714      0.03118158893390
  N   5.18466073792920     -0.09295652918791      0.10126364153745
  C   3.00841990664583      1.06616809180887      0.14792308913899
  C   1.66979163109768      0.70755317241841      0.08905440236658
  C   0.67654667858466      1.68236096145997      0.08698406766726
  C   -0.69307686892343      1.68979656218788     -0.00854318174828
  N   -1.26936084502302      2.93920734651850     -0.04059654655555
  C   -2.58425511614249      2.74656802717768     -0.11254058961413
  C   -2.93754471767169      1.39114329541341     -0.11199595585297
  C   -1.75080842496277      0.65499017415590     -0.05464206167763
  H   -0.61431956299684     -3.78045728287856      0.27883407974343
  H   -2.19467384474860     -3.25935379713874      0.10128516680261
  H   1.04797542826758     -2.69390665413164     -0.27463196721293
  H   3.30265048377934     -2.22278481484687     -0.19338335733355
  H   5.65841870191727      0.77415426049371     -0.07957047344540
  H   5.66976984340705     -0.90181403688471     -0.24462544393114
  H   3.37083280368460      2.07850140459325      0.24608648847827
  H   1.06065164881991      2.69462240879125      0.14958454676823
  H   -3.26126662506969      3.58776123258825     -0.16617163064891
  H   -3.93585241604335      0.98953885837719     -0.15560571870406
