26
Coordinates from ORCA-job ./opt_b97-3c_parallel
  N   -1.82764477078384     -4.07206195121159     -0.00560412670637
  C   -1.34435883975507     -3.01810190953264     -0.00488307226166
  C   -0.62655423256386     -1.77759724981450     -0.00352849747502
  C   0.75854136266356     -1.98895951137961      0.00071939095836
  C   1.90334625314886     -1.20365453127248      0.00284152541242
  C   3.10192437582110     -1.98553181831659      0.00693948787422
  N   4.01129297821016     -2.70495658080243      0.01030112607987
  C   2.12834973705210      0.18870930471542      0.00147697022138
  N   3.40280744597203      0.60733743162897      0.00349563509687
  C   3.32417840079333      1.95762663333078      0.00223255680344
  N   2.09972998638108      2.47318115703452     -0.00024965260493
  C   1.26872669472959      1.39161325870822     -0.00094606014463
  C   -0.09833596129197      1.65416264436993     -0.00356253777047
  C   -0.40085308303494      3.05419078800678     -0.00432192392917
  N   -0.76503959840353      4.15500682967924     -0.00510890770726
  C   -1.24773072055340      0.82830772254730     -0.00575646787010
  C   -2.52528320536412      1.36527280922810     -0.00895661008084
  C   -3.42773774533367      0.27678263460009     -0.01158763060528
  N   -4.75958205996761      0.32191140530772     -0.01513406257644
  N   -2.78337797789735     -0.90835488598961     -0.01017583027941
  C   -1.46537742391038     -0.65080455792347     -0.00662935491576
  H   0.99588516928656     -3.04353906126970      0.00256495628615
  H   4.20921108460236      2.57526233701531      0.00319815558244
  H   -2.77720214143590      2.41129807909593     -0.00947826216040
  H   -5.27929449047799     -0.53829858236962     -0.01653799595698
  H   -5.26093634508692      1.18999227911405     -0.01585887247045
