33
Coordinates from ORCA-job ./opt_b97-3c_parallel
  N   -6.10812094002541      1.47502231470829     -0.08239981123635
  C   -5.03193213047044      1.03465133835697     -0.12558329527513
  C   -3.70585614333690      0.58699857864753     -0.14400064986390
  C   -3.21716977202833     -0.67182089058242     -0.49441428995749
  C   -1.82172885840303     -0.72002151625067     -0.30598892049221
  C   -1.16912505850759     -1.93361529391803     -0.44586426721799
  C   0.08288079632041     -2.45222984304475     -0.11786789491058
  C   0.11737521535721     -3.87052391048574     -0.15830625031357
  N   0.18662816111199     -5.03212799620213     -0.16657960424421
  C   1.31815761145031     -1.85164754822796      0.30654962231799
  N   2.19533841472321     -2.70006208423901      0.88498477839125
  C   1.79104207063772     -0.52855064316572      0.08821921495379
  C   3.16884413017243     -0.29057921586197     -0.00506216092879
  C   3.41871738871156      1.07270001291534     -0.22149227363735
  C   4.64905300311601      1.69492535324858     -0.45771161401000
  N   5.64025172572002      2.27144867839174     -0.65744048956860
  C   2.17395533264503      1.73440155795538     -0.24960554678986
  N   2.01788311380962      3.07633951031158     -0.41842818801681
  C   1.13247177359007      0.77026948456281     -0.04882313982384
  C   -0.16630794116320      1.21708506003169      0.12402659667376
  C   -1.40515878067620      0.61147280218473      0.12359209690458
  C   -2.59922799083871      1.38268347464481      0.26255380094582
  N   -2.69564346875102      2.67498686765446      0.64744002979899
  H   -3.82632495369889     -1.50374312909427     -0.80986053379487
  H   -1.84154402188225     -2.71136734364935     -0.78960526809036
  H   2.02542406857224     -3.69073513969410      0.91505228440651
  H   3.04412813762799     -2.35895268029312      1.29081788953018
  H   3.94443075845433     -1.03797084796349     -0.03193590917354
  H   2.85502786087341      3.58963944687879     -0.64239503402788
  H   1.21516937577111      3.39310129184736     -0.93265447859531
  H   -0.22195943002477      2.29752050413864      0.22997730238043
  H   -2.00410907230902      3.04892984894236      1.27163857109605
  H   -3.62003867464872      3.05255608915136      0.77365993626958
