31
Coordinates from ORCA-job ./opt_b97-3c_parallel
  N   5.04976668965795     -0.00460691776430      0.08034968077961
  C   3.88828562619229     -0.00361540622497      0.03126464068911
  C   2.46498364780072     -0.00240756807115     -0.02086940957316
  C   1.89199810598750     -1.27679044799461     -0.09996772606215
  C   0.61173960208648     -1.79010287822846     -0.14558899808618
  C   0.49698457193025     -3.19864755420110     -0.33896074886354
  C   -0.81904844296789     -3.57872200734121     -0.31143388575105
  C   -1.59830466699421     -2.42919156124776     -0.05729509072002
  N   -2.97420018693549     -2.49023058136324      0.03850086480621
  C   -0.74842816643586     -1.28640074304825      0.06479572871108
  C   -1.25496626419503      0.00086809399289      0.36940314141798
  N   -2.51007931703022      0.00206651522783      0.96740937432279
  C   -0.74622178200141      1.28713887446704      0.06427092946321
  C   -1.59413033087500      2.43134277942512     -0.05827006358100
  N   -2.96991657407729      2.49479515662490      0.03755455130336
  C   -0.81290390040118      3.57942071954086     -0.31291236645578
  C   0.50247438513742      3.19706551382373     -0.34031475090156
  C   0.61480488069226      1.78840622301926     -0.14635695045439
  C   1.89418255929784      1.27291978771393     -0.10051887109536
  H   2.64194344965658     -2.05512397778558     -0.18093129025613
  H   1.34526195045351     -3.84859641258514     -0.48719533164412
  H   -1.21352735286996     -4.57275299428765     -0.45712117297810
  H   -3.37039375301192     -3.32050596100804     -0.37134336234097
  H   -3.47383513159687     -1.65773040484739     -0.23393252674981
  H   -2.72772922832024      0.83657240161516      1.48828066537672
  H   -2.72916414843992     -0.83185616855833      1.48861238582883
  H   -3.47100559660480      1.66306282436365     -0.23455316987637
  H   -3.36468818146422      3.32559979662343     -0.37258950338845
  H   -1.20567331472191      4.57406951853862     -0.45900189719777
  H   1.35186584654809      3.84549039571297     -0.48883942263033
  H   2.64546079240269      2.04993148066812     -0.18182195859227
