34
Coordinates from ORCA-job ./opt_b97-3c_parallel
  N   -0.55045881197029      4.55225999294095      0.31646975889056
  C   -0.41992027207975      3.39847540244583      0.21096338644106
  C   -0.27267757105126      1.99342872871587      0.08636100070265
  C   1.05981900901613      1.65143433985579     -0.21470441970693
  C   1.81896561310088      0.51218350508476     -0.16374957427216
  C   3.25565027065454      0.54685728428552     -0.31907397375289
  N   4.01685292347891      1.60884143886110     -0.65323271939667
  N   3.84606014814093     -0.61865883023594     -0.01885626108203
  C   2.83354052970049     -1.45526243087800      0.30657831317713
  N   3.12409257747673     -2.74149552277256      0.62967686292786
  C   1.54475487134963     -0.86084395013910      0.20089715009568
  C   0.37907358710197     -1.60581288311186      0.20375632924129
  C   -0.95867407849339     -1.31947477281026      0.01749133213904
  C   -1.86512074523354     -2.41518548876555     -0.22197865967604
  N   -1.50848131118566     -3.73690581243883     -0.30479927181128
  C   -3.16363127808739     -1.94651338549440     -0.32359743587023
  C   -3.13644137135220     -0.55825943626018     -0.15014479918538
  N   -4.26993766754662      0.19601782729697     -0.22355438994575
  C   -1.77700449535986     -0.10772966349347      0.06617992459525
  C   -1.47732691581050      1.24715506329719      0.29055644312568
  N   -2.57668479050215      2.03130649794665      0.66906830279836
  H   1.64112153088915      2.54381646370557     -0.42020925577072
  H   3.60908854495696      2.37896498167075     -1.14898891999903
  H   4.98409712218754      1.41797620931760     -0.84653018469838
  H   4.09839099107546     -2.91724183370135      0.80831419963874
  H   2.49357491704232     -3.22128688922159      1.24625150114239
  H   0.56961091451341     -2.66964457428267      0.31352679718034
  H   -0.60886588626208     -3.93257018522247     -0.70826662316841
  H   -2.22168747342211     -4.34776806192616     -0.66422357898358
  H   -4.04465234583816     -2.53325760903669     -0.53463688279853
  H   -4.13178016178692      1.18583301356886     -0.37351126552490
  H   -5.03174037513962     -0.21720327270109     -0.73502371257474
  H   -2.36549993822987      2.99770528268616      0.86325778100503
  H   -3.13070071343274      1.62427051901247      1.40599565121677
