33
Coordinates from ORCA-job ./opt_b97-3c_parallel
  N   -0.00167229887106      4.72853865894269      0.01360616898461
  C   -0.00129479858063      3.56433475644623      0.01116062401347
  C   -0.00084491812819      2.14161730561390      0.00836783890279
  C   -1.29180484963369      1.58541051782675     -0.06686768955390
  C   -1.83458971299345      0.32413354100881     -0.03439618395789
  C   -3.27493077757322      0.15977382387886     -0.07452661013015
  N   -4.18912326304921      1.16223234799121     -0.15682078840886
  C   -3.60189038847800     -1.18489834410007      0.07096732860806
  C   -2.40730431338206     -1.90188297034058      0.18798543351648
  N   -2.34696316170004     -3.26150288182631      0.32303547562178
  C   -1.28187292342807     -1.01947036289966      0.08301465132728
  C   0.00030487810842     -1.53319435243863      0.00123883462426
  C   1.28215941568936     -1.01835150451411     -0.07855748830718
  C   2.40814458329970     -1.89963982378296     -0.18695669408089
  N   2.34864941287349     -3.25876155574790     -0.32730857003356
  C   3.60228169610349     -1.18236615402822     -0.06714837075743
  C   3.27447619221744      0.16152437705435      0.08356275913926
  N   4.18803929564545      1.16422955480610      0.16975570824378
  C   1.83403232658492      0.32513205344866      0.04406931442383
  C   1.29046165627293      1.58593157264926      0.08142782492077
  H   -2.03397706665199      2.37396140977533     -0.11364669537121
  H   -5.12574406943989      0.90476318755197     -0.41140418785715
  H   -3.89685544255940      2.04607544689867     -0.53332656783079
  H   -4.59825709789433     -1.59732450646057      0.11428561239613
  H   -1.55035531875248     -3.63055814327292      0.81251075521859
  H   -3.20444492442276     -3.70866786919200      0.59769302251872
  H   0.00065014009840     -2.61907046297011     -0.00085018271376
  H   3.20640736617708     -3.70431037944871     -0.60372769945336
  H   1.55227156963235     -3.62638522269399     -0.81823546479679
  H   4.59890655624047     -1.59399966047787     -0.11205873039526
  H   3.89523067780040      2.04640439700135      0.54973809282906
  H   5.12482451023914      0.90634738889007      0.42331391157869
  H   2.03214402145541      2.37475456881038      0.13125489188058
