36
Coordinates from ORCA-job ./opt_b97-3c_parallel
  N   -5.53995491206723     -1.03625624878679      1.36101013724419
  C   -4.45211467269490     -0.87286047525234      0.97547143228648
  C   -3.16547593535606     -0.61386067570441      0.49707283789824
  C   -2.03688606511974     -1.44204817665604      0.56881084195364
  C   -0.92180978480837     -0.76649178644869      0.04718452509834
  C   0.31389767038558     -1.43932083646932     -0.20189489105528
  N   0.19003833023687     -2.80307649101409     -0.41332753879646
  C   1.60608988841020     -0.90270836731643     -0.24081027908450
  C   2.79233015694453     -1.68071508879320     -0.46309628844083
  N   2.85839451018180     -2.96130720092471     -0.96956143080723
  C   3.90779558230774     -0.98798686609789      0.00168215172168
  C   3.49070329585718      0.24592736138305      0.50685653501116
  N   4.34249376029579      1.19105349726692      1.00915344838455
  C   2.07127609649258      0.36656728193500      0.32643346866255
  C   1.43332723026681      1.60307175555295      0.34378139546200
  N   1.96047206542920      2.59863822847892      1.17466675024601
  N   0.51768222873446      2.07093790651048     -0.50347258734034
  C   -0.64305517291268      1.64018956306777     -0.89585857466072
  N   -1.29732932179000      2.46407445437096     -1.79567495131373
  C   -1.38903377394580      0.54060886330953     -0.37981389549492
  C   -2.77649641003350      0.60256159692943     -0.13064060048705
  N   -3.65916693236300      1.61501062155485     -0.42985445249349
  H   -2.04066043269022     -2.41788722392912      1.02711109722445
  H   -0.74961118167022     -3.15551355685605     -0.38020817646228
  H   0.87392377690491     -3.40291574595228      0.02245410804049
  H   3.77793254943472     -3.23225878283066     -1.27773388400073
  H   2.14376106552166     -3.18947048868221     -1.64345915597304
  H   4.92810454216031     -1.33995817947252     -0.03270634224898
  H   3.97513973268103      2.13395761640952      1.01068378410900
  H   5.29172627849127      1.12471417422481      0.67966319309229
  H   1.42643557329588      3.45203245034112      1.11966612068565
  H   2.10421735051353      2.29806271743161      2.12622480189653
  H   -1.90316285352059      1.99980732248932     -2.45193437839366
  H   -0.70960969338880      3.17448674197109     -2.20070377037068
  H   -3.24328308969326      2.52307292257626     -0.56537039606823
  H   -4.48608154569153      1.63284959988348      0.14612326497411
