27
Coordinates from ORCA-job ./opt_b97-3c_parallel
  N   4.47816500849458     -1.62410816255604     -0.83734667608336
  C   3.57814908988927     -0.92049297769096     -0.60761211427081
  C   2.52865538135225     -0.04770937423669     -0.32838897363562
  C   2.68538871119303      1.32429230773130     -0.06940947969483
  N   3.83374221898915      2.00873069477271     -0.12060481079403
  C   1.41550086798854      1.86414472796864      0.25345721762286
  C   0.44842645042094      0.87442360098725      0.19224371729449
  C   -0.93169725992842      1.18565739125486      0.27949278417653
  C   -1.20168510231942      2.55484138954035      0.58749151517165
  N   -1.31774734360616      3.67172291929867      0.87769710861898
  C   -2.06916613182633      0.44194536287982     -0.01773657840660
  N   -3.24027339728272      1.09441842438315     -0.20962357073123
  C   -4.07746088745128      0.14081863267500     -0.64010232332237
  N   -3.61095875133650     -1.11886700716442     -0.68886330819197
  C   -2.33051302256544     -1.01707338481410     -0.27939926476495
  N   -1.66279312282443     -2.11289368476910     -0.00877911252433
  C   -0.41276982356563     -2.40702269928193      0.23869258841253
  N   -0.22481346806547     -3.66035663272526      0.73699793077754
  C   0.79696844222534     -1.71525009646434     -0.08230804647892
  C   1.15276911661368     -0.40186902402160     -0.12694175078028
  H   4.69475392860411      1.55425316471678     -0.36700892517274
  H   3.86877564083538      2.98333967204716      0.11062163885425
  H   1.22575461723443      2.90496694069142      0.45530293190417
  H   -5.09118714541223      0.37667657106279     -0.93044900371955
  H   -1.04644648644747     -4.19058946082640      0.96951376273792
  H   0.64513059126490     -3.92119912750252      1.16279469547915
  H   1.62215014182565     -2.39564401296098     -0.26601415277999
