34
Coordinates from ORCA-job ./opt_b97-3c_parallel
  N   1.67019365279874     -4.85928249008595      0.46465874050017
  C   1.44899255494129     -3.72673069038605      0.32247025267946
  C   1.17215878071109     -2.34119233379969      0.14976595685298
  C   2.30490111366701     -1.54718330873633     -0.08238310957033
  C   2.53677202380822     -0.19820268252083     -0.23594854211588
  C   3.85820156538016      0.19723291496228     -0.62599894043228
  C   3.95120759246154      1.55861361225119     -0.67425346746612
  C   2.70042974589739      2.09142734196273     -0.26602951721130
  N   2.48397372084818      3.44400399320460     -0.18779784698442
  C   1.79350983699016      1.02741201326773      0.02028898836827
  C   0.47312770311775      1.26806173811759      0.48722095130409
  N   0.30814414414624      2.49174770276734      1.14885005961884
  C   -0.70868348720627      0.53708379281047      0.27287913648708
  C   -1.99120069645231      1.16200604112008      0.27419112766546
  N   -2.31193443790987      2.47118376266419      0.48532615535591
  C   -2.98808271933638      0.20781028292082     -0.04320491458538
  C   -4.33863876652079      0.48685607928817     -0.24080265349173
  N   -5.46648482199878      0.73001982686047     -0.40893909024748
  C   -2.35734327280668     -1.03169102784194     -0.23271480318969
  N   -3.01919572763809     -2.17529623052819     -0.51552637958690
  C   -0.94470393732846     -0.88338675788816     -0.02863866388429
  C   -0.19029844375336     -2.03361311094390      0.07477988724129
  H   3.20334885471285     -2.13959620014020     -0.21183691519723
  H   4.64729656237093     -0.50563798314466     -0.84398045261309
  H   4.81099445587187      2.14714647873098     -0.95453322082096
  H   3.12101500713440      4.00586002020407     -0.72743385844516
  H   1.52825468582746      3.75873640511637     -0.24504756140399
  H   -0.44955850991437      2.49185005794159      1.81382272922049
  H   1.15339050400509      2.82494882075603      1.58522087486563
  H   -1.59908379480144      3.15493549921083      0.28699840153149
  H   -3.23549645602163      2.74097836328359      0.18454854154055
  H   -4.00158116086635     -2.10893813799049     -0.71777787096578
  H   -2.53935025010137     -2.91455580908771     -0.99485152935697
  H   -0.79446609913596     -2.93348049844198      0.09220226463419
