33
Coordinates from ORCA-job ./opt_b97-3c_parallel
  N   -6.00998242136138     -1.44600737696028     -0.84034895247082
  C   -4.93123498980616     -1.10982429278794     -0.56537794249169
  C   -3.63114476498431     -0.70345776216273     -0.22412375577779
  C   -3.27626272126778      0.53810495086171      0.35389084819558
  C   -1.88904354008591      0.59084094520325      0.46347424875617
  C   -1.21473669108120      1.77516396584581      0.93129880166138
  N   -1.74393018679183      2.39097681074735      2.00756459210682
  N   -0.23981272768881      2.39027144810918      0.32206257714182
  C   0.63506819506800      1.96978185957045     -0.57528889916649
  N   0.89491623290887      2.82978359596199     -1.57834754960857
  C   1.46206022950148      0.81175814316547     -0.46325714444939
  C   2.83123864907484      0.90923666923171     -0.69872905403975
  C   3.45953234822883     -0.26696423447433     -0.24851718234938
  C   4.82956559869657     -0.54967599845377     -0.21653307377127
  N   5.95524184589093     -0.84209106618871     -0.16232777597948
  C   2.46447513430480     -1.12947630818756      0.25289398702785
  N   2.72560488131624     -2.41383341961804      0.71000594175734
  C   1.19208545470634     -0.49998490656624      0.11066379834185
  C   -0.03964529103266     -1.20234295633911      0.13297701276579
  N   0.01488984941980     -2.54681920380452      0.27734329912952
  C   -1.35262374089523     -0.65921528176230     -0.01192411273269
  C   -2.45755970752700     -1.43804221580426     -0.42123906168663
  H   -3.96249134008098      1.33991937969974      0.57417770899475
  H   -2.51110302634154      1.97457719531671      2.49893936673634
  H   -1.43986346783258      3.31516584951589      2.25690286081308
  H   1.56686561113525      2.60552576655099     -2.28725132601962
  H   0.49153029502077      3.74916703139860     -1.55749756628570
  H   3.35903679531157      1.79270543351967     -1.01836869817754
  H   3.71441995529488     -2.61340556308524      0.76376485390110
  H   2.27483730954099     -2.63939055671479      1.58533378150100
  H   -0.84309960272305     -3.06413071408788      0.31056263343658
  H   0.86487768323220     -3.04539835542476      0.05913839971928
  H   -2.42355437305194     -2.41355042287584     -0.87937921967924
