33
Coordinates from ORCA-job ./opt_b97-3c_parallel
  N   -6.03741301099985     -0.05214575757614     -0.14147215302212
  C   -4.87550008846708      0.00083462791859     -0.18991425900729
  C   -3.47730855813147     -0.01547204648622     -0.22572104547349
  C   -2.61479452044647      1.02888684996370     -0.56284935551721
  C   -1.27602999671842      0.63898681485072     -0.35863984336159
  C   -0.22895787748920      1.57586903129494     -0.47133541783779
  N   -0.46228032458156      2.67585052255496     -1.22261402565843
  C   1.02961279999930      1.61905047164605      0.25277611794554
  C   1.36152863952800      2.92376533127044      0.66954750819908
  N   1.65511446245382      3.99920530732748      1.01487390006155
  C   2.04184670311916      0.65613396332619      0.45132280953951
  N   3.21087300832505      1.12243507992836      1.00187306568639
  C   2.08123354760906     -0.70540618377985      0.05667876630264
  C   3.27868194157888     -1.43284423727115     -0.16710106837505
  N   4.57226236293951     -0.99933230863860     -0.19022744583671
  N   3.05732788580378     -2.76698780009839     -0.37098159002318
  C   1.74983304179740     -2.93058815804009     -0.25495914660335
  C   1.04445024368745     -1.71635349743119     -0.02734485758350
  C   -0.32751107738910     -1.73631609571387      0.08799926053142
  C   -1.30733971826103     -0.75296539079219      0.07775572420923
  C   -2.68005208373096     -1.12025755934605      0.17257541902569
  N   -3.17817768416651     -2.33367226330835      0.52173247910476
  H   -2.97283227536105      2.01781551169651     -0.79861428732068
  H   0.13522471690988      3.48030784780566     -1.14387758316702
  H   -1.35428180250043      2.82005179665550     -1.65622667891193
  H   3.76081560867717      0.46150070822665      1.52329995816218
  H   3.22597935279790      2.06042093460323      1.36660537953625
  H   4.72846882587656     -0.03053942732881     -0.41536882116367
  H   5.20099890354231     -1.64844886694748     -0.63513104593260
  H   1.29514515585093     -3.90679597864026     -0.35574312292514
  H   -0.72334677851323     -2.74799093760443      0.11449211643447
  H   -4.17654192356633     -2.39889354912569      0.63004966086829
  H   -2.66007524087279     -2.88832331054237      1.17891564871335
