30
Coordinates from ORCA-job ./opt_b97-3c_parallel
  N   0.04187783886587     -4.17180110987620     -0.77402125210782
  C   0.05246149030159     -3.02692988283864     -0.56036707566013
  C   0.04015060561769     -1.63135005107557     -0.29863200043997
  C   1.33613627391551     -1.14569830885206     -0.06666965039152
  C   1.97604373771134      0.06413775765370      0.05973320574804
  C   3.40563160676727      0.11219072665479      0.25448622573365
  N   4.21583776489884     -0.94985866463121      0.50075951602800
  C   3.84837430852658      1.43591674231257      0.08946910204045
  C   2.74149133295700      2.22241766891398     -0.17506779822451
  C   1.56193780440603      1.44077076638781     -0.17438977002299
  C   0.32364392311190      2.02435267191154     -0.31661391417485
  C   -0.98426218600135      1.56644812135361     -0.20671915837966
  C   -2.01357089810588      2.52547207954821     -0.12939903421891
  N   -3.21484610745828      2.00860791923606      0.14382166210536
  C   -3.02292845941341      0.67551498673250      0.21503537498086
  N   -4.11768502827436     -0.11820142604971      0.46866512230839
  C   -1.66334461486330      0.28645453779909     -0.02230690910109
  C   -1.27473638848193     -1.05135513796311     -0.24280964621160
  N   -2.29055106833399     -1.95798435683870     -0.37191132887748
  H   2.03284066509437     -1.97769697637939     -0.04834629096517
  H   3.83219267153117     -1.75858772016610      0.95549321245745
  H   5.16783765759769     -0.75471635865348      0.75314427636252
  H   4.87058498443337      1.77014687067702      0.17507130010048
  H   2.75361010324024      3.29110455368248     -0.33004693079828
  H   0.37369675814977      3.09870170601657     -0.46965786897444
  H   -1.87853851043860      3.59375034770879     -0.22718591433378
  H   -3.95112310793160     -0.91997063144993      1.05823379702391
  H   -4.90494424508784      0.43499907836156      0.77280670403320
  H   -3.17940232574561     -1.62478624044543     -0.70940498074080
  H   -2.05746538019051     -2.90047430963050     -0.63643262499939
