35
Coordinates from ORCA-job ./opt_b97-3c_parallel
  N   -5.76083893144617     -1.59440595080368      0.84881366066372
  C   -4.65254129559754     -1.37650882287579      0.56475681559392
  C   -3.33715652655536     -1.03536039804632      0.23601260472783
  C   -2.25858266866692     -1.87500010919713     -0.00461373396895
  C   -1.09621087846367     -1.10367079516879     -0.22492561548266
  C   0.11273727308984     -1.76398425890662     -0.41116952991577
  C   1.43248499395033     -1.38102386648539     -0.30599758924762
  C   2.49171835035166     -2.34126880759712     -0.36537511410733
  N   2.40951007664310     -3.61931010963644     -0.78797717388101
  N   3.66150820602130     -1.87913996245004      0.11729118835121
  C   3.42408962836908     -0.62116063641639      0.51273928624492
  N   4.44877863873811      0.12065304977549      0.99263939188479
  C   2.06125277137819     -0.19901928777658      0.26543276684050
  C   1.63404102567089      1.10709400364212      0.38414663646497
  N   2.40966658870630      1.96424537322247      1.15660977411760
  C   0.58659547317129      1.77886593597789     -0.37640042162733
  C   0.98973936926927      3.05003967990215     -0.83206026951236
  N   1.30214043900430      4.11154853618173     -1.20319421042250
  C   -0.76604870935796      1.46606110570015     -0.56981688520324
  N   -1.54956507504371      2.46532609157694     -1.10668464732338
  C   -1.48929309756186      0.29656976134374     -0.18769805375698
  C   -2.87734612198528      0.31389751449833      0.09767288088729
  N   -3.72955045982910      1.37565554917915      0.19830603733939
  H   -2.28861883560619     -2.95245195070846      0.01604563901532
  H   -0.02576648275002     -2.82935318686225     -0.57154365345066
  H   1.70136361499746     -3.87210056630520     -1.45164755365713
  H   3.27883131816311     -4.11830369416579     -0.85968011671316
  H   5.35871935449198     -0.26842556346829      0.80177871963306
  H   4.36895985854840      1.12189906777982      0.89005399240443
  H   2.72640931429710      1.57785127237687      2.03139695429338
  H   2.04088112734229      2.89438886265208      1.26598047590399
  H   -1.08249380106147      3.28249434214665     -1.46467664597563
  H   -2.33362885458781      2.16558086320648     -1.66112074025808
  H   -4.58707933887093      1.20306894543350      0.69798027622659
  H   -3.31711540711978      2.27889711167351      0.36292612561117
