33
Coordinates from ORCA-job ./opt_b97-3c_parallel
  N   -2.89304048066722      3.62938942217244     -0.98652328955649
  C   -2.07677976411181      2.88471982924773     -0.62184454821084
  C   -1.03298231064554      2.02346237600683     -0.19629022848088
  C   0.18235694997776      2.68854105303302      0.04206023054833
  N   0.18861107069783      4.06491528782818     -0.06349660656462
  C   1.41788025535982      2.18045463668902      0.50464947019299
  C   2.08813599728303      0.99018850469192      0.41801228268503
  C   3.46880126473569      0.94317052201827      0.73863678874072
  C   3.99811582260220     -0.25302671269618      0.27366714602644
  N   5.29643277020448     -0.64373410591933      0.30091493752772
  C   2.94696951903281     -1.01798299746763     -0.30865155856450
  C   1.74960376866391     -0.33170190293762     -0.18638693114996
  C   0.50479522433720     -0.97113902147929     -0.39836014209820
  C   0.64350470229915     -2.25630764884319     -1.00432723915932
  N   0.82022323432654     -3.24821813013778     -1.58069110882474
  C   -0.80188314160644     -0.62501097214905     -0.03922672299682
  C   -1.81922587438341     -1.60499742081473      0.14355670933631
  C   -1.72446047163703     -2.98652060827190      0.31988412513420
  N   -1.80063655809215     -4.13053878715647      0.52740666128606
  C   -3.05033076629870     -0.94033181253159      0.36241055828187
  N   -4.21650053975703     -1.55261853563183      0.61653926660705
  C   -2.82848977969737      0.44587839834996      0.27645459067500
  C   -1.47662474937545      0.69311169686437      0.07077381670786
  H   -0.61437229114172      4.51407224769352     -0.47104069951195
  H   1.06213707790197      4.49670825458114     -0.30529600338872
  H   2.03750248250902      2.97084491255839      0.91595776552656
  H   4.02669043570751      1.76850628582783      1.15228441149303
  H   5.92343783433528     -0.19215221664802      0.94182140752492
  H   5.51102929327893     -1.60449179945393      0.10351476213361
  H   3.05633071397094     -2.01954223600241     -0.69075397298062
  H   -4.23574769210779     -2.54726113198293      0.76397456283776
  H   -5.01729539753644     -1.02590709001651      0.91008388275230
  H   -3.59302598446528      1.20028725887847      0.35712467087017
