34
Coordinates from ORCA-job ./opt_b97-3c_parallel
  N   -2.20940922974483     -4.07961915188299      0.88696245417941
  C   -1.79640750512374     -3.01549871082878      0.65418841369174
  C   -1.28100827411642     -1.72306873625522      0.36872211385027
  C   -2.31482883550852     -0.83523729482795      0.03413922734635
  C   -2.47382849864239      0.52122509837791     -0.10431794809235
  C   -3.78431196223389      1.08209103430506     -0.36242306721318
  N   -4.89831142134370      0.37839003416002     -0.68843057638029
  C   -3.73615411932925      2.46891725518881     -0.16112527343082
  C   -2.43226576253847      2.79635579542469      0.17945700876435
  C   -1.61094373870175      1.64580712610020      0.19553377881219
  C   -0.24323167433309      1.76090409463723      0.37860848097385
  C   0.84246423138356      0.91219416207549      0.27878254422580
  C   2.14288288722961      1.49398941471828      0.17023580116731
  N   2.48532906922086      2.80111427677954      0.28852659239468
  C   3.08808870725985      0.48311866623256     -0.08147226044959
  C   4.44003286537863      0.67489509993851     -0.35644900501610
  N   5.56987741801133      0.83689096120911     -0.59537944545132
  C   2.41180212683199     -0.75650278092018     -0.09799661559152
  N   3.08170420847783     -1.91657747323207     -0.33069663897912
  C   1.01738852458974     -0.54965496985542      0.16118139994545
  C   0.15131357209990     -1.63067157487887      0.41032921906114
  N   0.77938663512821     -2.84098654742884      0.66417530168265
  H   -3.25253715179092     -1.37509592814234     -0.04808552496755
  H   -5.71038971560041      0.89898286845948     -0.96677968591537
  H   -4.79722899902028     -0.50399940667571     -1.15649368706623
  H   -4.56283018189653      3.15177525491111     -0.27793354940110
  H   -2.07117023041531      3.79624425570102      0.37299604654132
  H   0.03258393914775      2.79406465421283      0.56626156871506
  H   1.78449538002195      3.50120949820656      0.13053540754866
  H   3.40284540175028      3.06006829466747     -0.03222030883053
  H   3.98562976635211     -1.82213762893865     -0.76543616353440
  H   2.53634570345987     -2.70712491673847     -0.63486035699725
  H   1.60414096635110     -2.79536266353173      1.23956686905677
  H   0.18122796784411     -3.61499056926950      0.90400802845936
