37
Coordinates from ORCA-job ./opt_b97-3c_parallel
  N   -5.60442049256359      0.75109214425797      0.90883642653198
  C   -4.49725955166412      0.55432876075354      0.59642257216117
  C   -3.17195297392804      0.32558770156420      0.23648625824526
  C   -2.65616724808959     -0.86714569073483     -0.33488788340196
  N   -3.45234498349463     -1.92311799604733     -0.67794058380343
  C   -1.24755596709960     -0.74823485808774     -0.41987182445411
  C   -0.42761886241290     -1.86720684948510     -0.69369891654420
  N   -0.96262370801115     -2.83726550480987     -1.54336965996645
  N   0.67818331635561     -2.24479613581084     -0.10254904157837
  C   1.63024606259282     -1.63133355594301      0.57246643626670
  N   2.31239004880981     -2.47500807707828      1.45643188323742
  C   2.18331864601385     -0.36398248219959      0.34777984814738
  C   3.58745107643901     -0.12533214650198      0.37106028832469
  N   4.57728481289562     -0.92566372016152      0.85373706925104
  N   3.92301247379014      1.03941202178206     -0.22360248255435
  C   2.77006549372374      1.60514419300382     -0.60863571232484
  N   2.81653071806848      2.85144185278923     -1.18276431313107
  C   1.61713453446878      0.82378117872583     -0.28335965320421
  C   0.30636711469912      1.32494279346596     -0.22736514073581
  N   0.14468107979885      2.66826163780746     -0.49790294520213
  C   -0.88598760889749      0.59369924479843      0.04481267111961
  C   -2.09383655932630      1.20521451808166      0.45838455657813
  N   -2.27210430943339      2.49501680393493      0.94334505658007
  H   -2.97707790535080     -2.80739328034930     -0.78511880486840
  H   -4.33527015543673     -1.97360760698880     -0.19526731259970
  H   -0.30854572112821     -3.58008215195999     -1.73367644988737
  H   -1.39466381036006     -2.46919510197105     -2.37604568374767
  H   1.82993023990064     -3.35079977879425      1.58461036563579
  H   2.55554536636700     -2.03827842750104      2.33182141019726
  H   4.33503679959472     -1.89987455172264      0.96362051253924
  H   5.48015987411405     -0.74298221085868      0.44630111582523
  H   3.74726549616149      3.09481775225813     -1.48462074655183
  H   2.10568219010673      3.03614081659957     -1.87354459279364
  H   0.86679795883927      3.29889961250609     -0.18647272955528
  H   -0.79029023747137      3.03343404218814     -0.42089840739914
  H   -1.58408129663097      2.77403404208248      1.62607006414825
  H   -3.20418761594055      2.65405462750519      1.29686959081413
