28
Coordinates from ORCA-job ./opt_b97-3c_parallel
  N   -5.41974119110479      1.40667595542229     -0.44713387693041
  C   -4.32294316813559      1.04749172893806     -0.30541550006760
  C   -3.00167955776638      0.60621980886619     -0.12733986330307
  C   -1.86615061008977      1.40662305644697     -0.01675697356701
  C   -0.72524576765943      0.57829369525341      0.10988896064106
  C   0.54298396165148      1.14829756723546      0.24361493216365
  C   1.82255433892961      0.65244929094197      0.14776903593852
  C   2.96657029115107      1.52201986578024      0.18054281292384
  N   2.95938797957892      2.82413122612540      0.57556844277387
  C   4.07659429052581      0.84345085194209     -0.35356347420427
  C   3.67260518319888     -0.43303806770494     -0.70259634701456
  C   2.31189684988132     -0.62825532056088     -0.37030810053873
  C   1.73750947875570     -1.87927309931325     -0.50842845348764
  N   0.65991780089928     -2.44166952488132     -0.00169909495233
  C   -0.50260944940025     -2.01139760877568      0.42052763732757
  N   -1.19799262200576     -2.91691753342514      1.15625717208556
  C   -1.20584701681812     -0.79031649670060      0.12125655183973
  C   -2.58889069615646     -0.74770734428018     -0.01551671359688
  H   -1.84949656249397      2.48438368286426     -0.04798509559489
  H   0.49021936178808      2.22673163603078      0.36903924196212
  H   2.28970347445891      3.10472485405185      1.26933768643704
  H   3.84949997474806      3.28032556503586      0.66600326830105
  H   5.06804983739880      1.25453540730074     -0.46502030595311
  H   4.30940693994389     -1.20086105600520     -1.11580513204262
  H   2.36482354426824     -2.59099088657653     -1.04291906970119
  H   -0.74750825106981     -3.79056472214739      1.36641560088509
  H   -1.95542904775188     -2.61311102592091      1.73797634226523
  H   -3.24755135162582     -1.59938676574367     -0.07160758479016
