36
Coordinates from ORCA-job ./opt_b97-3c_parallel
  N   -5.59612020538050      1.62929297023969     -1.38223867239209
  C   -4.66177157275424      1.07094891886900     -0.96644613328468
  C   -3.50905337214256      0.46922235631362     -0.45526002817345
  C   -3.21103554437867     -0.89394808304349     -0.36899217577820
  C   -1.90340622386877     -1.05917953032521      0.11324376533490
  C   -1.42551907829273     -2.35474354350194      0.46680447735081
  N   -2.38746691581865     -3.26102336543935      0.80742664146550
  C   -0.12264455320187     -2.86151058417944      0.44507904390072
  C   1.07764316394415     -2.32268515961313      0.03107850318990
  C   1.59211706596360     -1.04291651808895     -0.11671531638449
  C   2.94476030436711     -0.89486640939742     -0.53637528997807
  N   3.72748670443478     -1.85697681450006     -1.08878975603201
  C   3.39740885048990      0.39888235251382     -0.21287989860795
  C   4.63912014318510      0.94153118644420     -0.53651020335992
  N   5.67626848334417      1.39923139578717     -0.80962480944745
  C   2.32917688407230      1.09624749906131      0.39864622779595
  N   2.44961139101195      2.39775680681470      0.78698451847820
  C   1.17822579764730      0.24887648513533      0.44503923928960
  C   -0.08488200058085      0.71575622174421      0.82001468926415
  N   -0.11087554058993      1.88913770888297      1.57434073163397
  C   -1.36265877729950      0.26597975735644      0.36290494724493
  C   -2.38761463932121      1.19018727408141      0.03372055402541
  N   -2.37958494477046      2.56731422268238      0.13894880968457
  H   -3.87168668139295     -1.67826053848731     -0.69947520789102
  H   -3.34215907536637     -2.97264505219642      0.89720820033141
  H   -2.20313177279057     -4.24611302246063      0.75749126803363
  H   -0.06342260276321     -3.91872684306440      0.68300413089854
  H   1.82656567241340     -3.09290046058808     -0.13459769780496
  H   3.28538469380546     -2.53763267677574     -1.67949343119934
  H   4.63931308414156     -1.57346564969573     -1.40524123085924
  H   3.24812346633146      2.88534050490537      0.41113041101182
  H   1.60180597810649      2.94360473769750      0.79692518596768
  H   0.62654328991750      1.95479315665491      2.25783596490291
  H   -1.00932621778373      2.09336412380506      1.98266892659749
  H   -3.09690210084069      3.01723178277318     -0.40958466369094
  H   -1.48217688193902      3.01113275489500      0.02379256828176
