23
Coordinates from ORCA-job ./opt_b97-3c_parallel
  N   -4.34874771638103     -2.17706491447564     -0.00416990239303
  C   -3.49540532290430     -1.38980151584786     -0.00326783270354
  C   -2.48399380748256     -0.41706883946051     -0.00201147532013
  C   -2.68181820504910      0.96005639507349     -0.00073278318511
  C   -1.43244467632112      1.59731329406623      0.00032062607633
  C   -1.23847988059636      2.98706978366653      0.00175467025829
  N   -1.11982866315658      4.14198119450766      0.00298314998611
  C   -0.38924718190659      0.63076129945931     -0.00030285372949
  N   0.85061808079887      1.05707096853409      0.00051248145310
  C   2.00867959879631      0.44615912937067      0.00019321380770
  N   3.11279762771884      1.24638333802107      0.00127366456263
  C   4.18045393230806      0.44140945481075      0.00070122406260
  C   3.83794518468818     -0.91744785035829     -0.00076028268732
  C   2.44312870918351     -0.98800086573317     -0.00116571792779
  C   1.77516978032404     -2.20434032575839     -0.00250344729040
  C   0.44130955784306     -2.59967326438922     -0.00321183914057
  N   -0.72303000048540     -1.96837159656306     -0.00290140676252
  C   -1.08116105400171     -0.71257453379405     -0.00184895052556
  H   -3.63643818046152      1.45847715380662     -0.00056677528164
  H   5.17713465037590      0.85776882320844      0.00134814436356
  H   4.51357396246867     -1.75886865705835     -0.00144646242786
  H   2.44602214640634     -3.05739104091293     -0.00316921093925
  H   0.31418393563474     -3.67788766897081     -0.00426475865655
