29
Coordinates from ORCA-job ./opt_b97-3c_parallel
  N   5.70554692590950      1.19269657708350      0.30499954357049
  C   4.56951902251225      0.94691040147152      0.22407279615178
  C   3.22943427845391      0.56649493471403      0.12213224682072
  C   2.08486891358206      1.36428964060714      0.15889468681364
  C   0.92728652475649      0.56999812890812      0.06211819939399
  C   -0.32034269148664      1.18807990673054     -0.03328799573228
  C   -1.60752989791245      0.71433890315501     -0.13000228275039
  C   -2.74687123624451      1.58778773164886     -0.12476142774793
  N   -2.74481347004887      2.93056378606094     -0.21610020889675
  N   -3.91906010160439      0.94626621278886      0.04326772189659
  C   -3.60379054357665     -0.35553918976729      0.14598820522374
  N   -4.58942537064540     -1.25398566390536      0.27567166270933
  C   -2.18747410794710     -0.61264513267074      0.02690024490039
  C   -1.67596184223886     -1.88860064999950      0.09357584758236
  N   -0.51911398620597     -2.45813813441840     -0.23113289984092
  C   0.70285896003326     -2.00618764180008     -0.36676131050219
  C   1.36581308277836     -0.80970068079714     -0.06723198188623
  C   2.79310257557180     -0.78334892036503     -0.02088857797510
  N   3.63964721894939     -1.83062658476428     -0.10145661733676
  H   2.08808970363303      2.44087858460188      0.23161369150609
  H   -0.24026248181234      2.27043034757638      0.00774152106689
  H   -3.64045702693870      3.37405026289866     -0.31929771155471
  H   -1.96259127790783      3.40067281903329     -0.63114512729063
  H   -4.40001867869334     -2.22348638923436      0.44027928426921
  H   -5.51644094274276     -0.91359505676459      0.45538645078457
  H   -2.39815430464148     -2.64558721063472      0.40238851468612
  H   1.36079057448432     -2.77269540807037     -0.78016262887204
  H   3.31629014766439     -2.75484142025216      0.11241393035536
  H   4.61770721071871     -1.66317548203500      0.06104328335499
