28
Coordinates from ORCA-job ./opt_b97-3c_parallel
  N   5.54543935456894      0.87291458740964     -0.03843073364245
  C   4.38991553423547      0.74134906916726     -0.08053177001808
  C   3.01188776271166      0.49622979118996     -0.11058947924626
  C   1.97472270754528      1.40975106814051     -0.28117800601025
  C   0.73534740223627      0.74763671760117     -0.19127180866173
  C   -0.43746930911164      1.47449138049018     -0.21903690190980
  C   -1.78126985281932      1.16980524693506     -0.03380299466652
  C   -2.70107804580806      2.23273509455282      0.15445942537702
  N   -3.93562565200517      1.81680222526529      0.45040190897835
  C   -3.87158576468830      0.46744861189034      0.41588631849947
  C   -2.58857025257343     -0.02672926124539      0.11820384419981
  C   -2.33166352805882     -1.40811734495366     -0.09633931973514
  N   -3.43506364530722     -2.19846244246947     -0.22743639954002
  C   -1.11818291366830     -2.12107263966356     -0.14164709494260
  C   0.22092359691397     -1.81192758819848     -0.02198932834907
  C   1.01872272536586     -0.67681773436004      0.01075421944104
  C   2.43490257534826     -0.79206333218657      0.08817894922101
  N   3.17151864070527     -1.91942643662338      0.25823730205412
  H   2.09967333411953      2.47134252559808     -0.42142934147605
  H   -0.26860520536874      2.54053530876438     -0.34257328363450
  H   -2.45728064410833      3.28556870334289      0.11047641508956
  H   -4.75175418534771     -0.10821734218814      0.66542672371053
  H   -3.31977061207731     -3.17278620012878     -0.43484211932643
  H   -4.30811232377124     -1.79159365665869     -0.50188228430621
  H   -1.27582015216829     -3.18738706113233     -0.26669963232200
  H   0.81264568912289     -2.72326448841281     -0.02795892790972
  H   2.76963706603355     -2.68200691077297      0.77252082317471
  H   4.15758766597486     -1.79569512125329      0.41719949805125
