22
Coordinates from ORCA-job ./opt_b97-3c_parallel
  N   1.41541919526002      4.13152866272168      0.57517487706865
  C   1.48314544682899      2.98401393531122      0.40460996177449
  C   1.54855717064837      1.59819377487624      0.20590164866198
  C   2.68564021735689      0.89647304778147     -0.25102719575632
  C   2.38373114724102     -0.45042919627033     -0.37454311874288
  C   3.26829621864035     -1.47431787091453     -0.74051635995008
  N   4.00216767122439     -2.31898876405943     -1.05047354282831
  C   1.03009467066648     -0.66158682671571      0.06693321513580
  N   0.60439176481070     -1.84825796995022      0.36037556862452
  C   -0.55917327521099     -2.34656593643058      0.76098661655940
  N   -1.77434345821365     -2.08408755531095      0.35714975672297
  C   -2.35636574838219     -0.99214488146140     -0.07859854314153
  N   -3.59265179470963     -1.04616776021455     -0.62554682781781
  C   -3.98896676373697      0.23008519702410     -0.65883858600186
  N   -3.12849017285944      1.16181143845712     -0.17760067032162
  C   -2.03332610074276      0.45523165175632      0.14721693652503
  C   -0.84444821803188      1.13114784737416      0.40043221853583
  C   0.46443615926473      0.70127366739547      0.34250741797299
  H   3.64248195473702      1.34485883572192     -0.46062963547028
  H   -0.46433766515969     -3.23026328812747      1.38478996900188
  H   -4.95800479053704      0.51328717217616     -1.04186862659743
  H   -0.97950507419270      2.20474041085663      0.47291542944445
