36
Coordinates from ORCA-job ./opt_b97-3c_parallel
  N   -2.38350946083012     -4.04256894636280      1.20490279243177
  C   -1.92842687587242     -3.02759013420923      0.85894207958411
  C   -1.34840935867604     -1.80435891981159      0.44046089687394
  C   -2.28367884185821     -0.89605553517153     -0.07253937827149
  C   -2.28794331450153      0.45647914746062     -0.31421403520252
  C   -3.48604227565011      1.07017972011777     -0.85068611599533
  N   -4.49252059603070      0.38181179386425     -1.46525681241616
  C   -3.46643194906400      2.43072828168677     -0.55845143077501
  C   -2.28681253428754      2.69740979987891      0.13975259364642
  C   -1.50501708917065      1.53354575410354      0.26778359032050
  C   -0.19470562473929      1.56036129198642      0.78634413196510
  N   0.14047497124449      2.68815851193394      1.53557016266211
  C   0.88077901263272      0.70999873737278      0.45719586850278
  C   2.18278465880247      1.24741370033752      0.26531004748858
  N   2.63549333076897      2.51865453878872      0.48197228245094
  C   3.01526854170764      0.24678153625373     -0.29018248047791
  C   4.32317124252563      0.43065939177681     -0.73248709829006
  N   5.41511703078281      0.58473425983382     -1.11210324605228
  C   2.27575100277049     -0.94494540946459     -0.38787517843341
  N   2.84348651657448     -2.11310671884833     -0.82174896517741
  C   0.94422528099636     -0.71408194536931      0.07246495434858
  C   0.07967380953313     -1.78584112397273      0.37995788964419
  N   0.66869119953447     -3.01640520772185      0.53566706963431
  H   -3.24563149372656     -1.36650266218225     -0.25625313188062
  H   -4.23409249199624     -0.39626786767594     -2.04599820351795
  H   -5.24131655965768      0.93026941120864     -1.84992290320315
  H   -4.20500169084860      3.15802488980872     -0.85690929087582
  H   -1.98204298560809      3.69280501193147      0.42519779579627
  H   0.85689969320223      2.52117848971827      2.22301999883428
  H   -0.64815056739115      3.15528693899525      1.94626495914378
  H   3.45465739817729      2.77535983652008     -0.04604793377355
  H   1.92932725335732      3.23779116913285      0.53130033613363
  H   2.21385846558678     -2.80614388058396     -1.19183749543921
  H   3.68727745885333     -1.99935192701275     -1.36089858185908
  H   1.60188249759561     -3.04760091069024      0.90815051998363
  H   0.08132331036257     -3.78929238873393      0.80035472009639
