27
Coordinates from ORCA-job ./opt_b97-3c_parallel
  N   6.03172704772862      0.12179275474321     -0.42635227093465
  C   4.87411106078849      0.12491937545303     -0.33443184253288
  C   3.47191266400523      0.13038122783819     -0.22252108599005
  C   2.66226863151150      1.26112353146555     -0.03225487483152
  C   1.31514191964418      0.86376966821508      0.02952186193637
  C   0.30445194536645      1.80797143319949      0.10832119138726
  C   -1.07505231863917      1.74373070010577      0.08914512230832
  C   -1.81177827893408      2.95117337593808     -0.06426289049508
  N   -3.12154922980377      2.75367010166083     -0.18460177780994
  C   -3.29794594216195      1.41908429097817     -0.05140481672779
  C   -2.09853178504458      0.70830528613945      0.12780364105094
  C   -2.09993936167908     -0.68774019196433      0.39102613317575
  N   -3.26546448242421     -1.19556982727334      0.83071268395182
  C   -1.05687040698738     -1.65792077556163      0.18263606468733
  C   -1.49688072276823     -3.00639627404872      0.29103992288578
  N   -1.90154186125839     -4.09124654007618      0.39616403319984
  C   0.30631277548113     -1.56573301290302     -0.07999870799579
  C   1.29357567595170     -0.58883759006613     -0.12303258732106
  C   2.63459587001027     -0.99281727485452     -0.28469282681021
  H   3.01479624655671      2.27777290587598      0.03758217595501
  H   0.67633238716997      2.82824658872612      0.12958434625957
  H   -1.38088363847893      3.94111541117077     -0.12199925912856
  H   -4.28977674933668      1.00610492156865     -0.16730580881091
  H   -4.01326005016074     -0.58981813950734      1.10748793615321
  H   -3.40657699430103     -2.18687101671910      0.92847990004107
  H   0.73482509459669     -2.55154592220115     -0.22300502092395
  H   2.96619856576668     -2.01043854260272     -0.41645773987988
