29
Coordinates from ORCA-job ./opt_b97-3c_parallel
  N   -2.34095050356957      3.99273185390640     -0.00373996460703
  C   -2.45752409661804      2.83642573867340     -0.00213954581368
  C   -2.58149018724172      1.43916012674562     -0.00050700230762
  C   -3.79540009324248      0.74198329235614      0.00109944979749
  C   -3.52601948400476     -0.62492081683175      0.00239229334023
  C   -4.48397572745469     -1.65041962335875      0.00406526861527
  N   -5.29771852785839     -2.47842908265317      0.00515951802422
  C   -2.11172450098061     -0.83841297190530      0.00162473084443
  N   -1.68082691118508     -2.07678716001339      0.00233140607385
  C   -0.49150343880024     -2.64814967307009      0.00203460518210
  C   0.83734539767909     -2.22243614340935      0.00149077543688
  C   1.50921446372027     -1.01005755557734      0.00060977463987
  C   2.93065227695388     -0.98173779234174      0.00049053730498
  C   3.79585807351455     -2.07947692697815      0.00138841465747
  N   4.55705710351771     -2.95926083585774      0.00228506766578
  C   3.37872945207495      0.35729728476128     -0.00073553660237
  N   4.64465463902164      0.77610170710593     -0.00120205228170
  C   2.22496537745323      1.18734463733948     -0.00141628004181
  C   2.30057204019777      2.58344264160413     -0.00267510986553
  N   2.43889267983394      3.73839222167153     -0.00378744301480
  C   1.06126545917622      0.38418574369416     -0.00059031470340
  C   -0.19581795248051      0.98033489763197     -0.00099819231392
  C   -1.49300636248157      0.51779902759193     -0.00015801238359
  H   -4.77348071668591      1.19251600184907      0.00126623334542
  H   -0.57247693979274     -3.73140677994735      0.00256139697602
  H   1.51418294986798     -3.07042159343983      0.00191649607667
  H   5.40582974696298      0.12088081766781     -0.00057391186506
  H   4.86470117703503      1.75617280152710     -0.00202071389869
  H   -0.13820273261291      2.06484315795798     -0.00209245798144
