37
Coordinates from ORCA-job ./opt_b97-3c_parallel
  N   -0.26643169684073      4.74120002132748     -0.78474212042015
  C   -0.25162278812563      3.60105709429549     -0.54777132748734
  C   -0.28005040516298      2.21085180937580     -0.28164182738467
  C   0.87468362340932      1.74656309054998      0.38319609911458
  C   1.53629538808504      0.54965303794639      0.42536220351362
  C   2.90486295209449      0.55546290157299      0.88712937234124
  N   3.46904966046653      1.47604873039959      1.68558482236924
  C   3.59738540932810     -0.48669378619476      0.25457424236384
  C   4.95986556508831     -0.75845959923209      0.36548992812166
  N   6.09959894630773     -0.98644734558369      0.45264416227916
  C   2.66835311895062     -1.21091554712854     -0.54342632755537
  N   3.04570074251887     -2.28858923956995     -1.28033780390807
  C   1.36299721038039     -0.68150202180784     -0.35731835155219
  C   0.18443947460204     -1.39679157520480     -0.59699326086030
  N   0.31519114752910     -2.66193830192480     -1.14651042276981
  C   -1.14520069782452     -1.02782109204592     -0.24842410245726
  C   -2.05873451195603     -2.02679409533980      0.13423930637154
  C   -3.30834732890932     -1.45669308311640      0.38170140108173
  C   -4.45817125794423     -2.08305121861649      0.87135721904836
  N   -5.44301997046222     -2.55082435483775      1.28070786044413
  C   -3.21735986470721     -0.06857073725756      0.09659941914706
  N   -4.29800328109271      0.77084014426725      0.18402750938219
  C   -1.87580651386397      0.23004644516904     -0.27219183986951
  C   -1.48325253129570      1.55159915832975     -0.62293285274718
  N   -2.45915470605920      2.32466328697160     -1.18396586169573
  H   1.43931368250666      2.56820691664212      0.81123792214594
  H   4.44083020459083      1.38645736672063      1.92529718408900
  H   2.90297107156995      1.99884783758969      2.32727836637773
  H   4.03628547237405     -2.39614403647476     -1.43036806662376
  H   2.47644289104817     -2.51255476351031     -2.08021709420598
  H   -0.55187845791161     -3.14710788892987     -1.29539514300119
  H   1.04570000531470     -3.25151870698869     -0.77576607366681
  H   -1.82723288406263     -3.06133235280404      0.32574421318993
  H   -5.04930353704252      0.42958656683638      0.76336989066011
  H   -4.09495579525415      1.74798799482013      0.32242559386487
  H   -2.23595573561283      3.26345260601497     -1.47031155929487
  H   -3.18229434863527      1.86495176993723     -1.70822242630730
