24
Coordinates from ORCA-job ./opt_b97-3c_parallel
  N   -2.05402564642244      3.71846919839450      0.00306219842868
  C   -1.44338024982076      2.73210215602496      0.00248026874664
  C   -0.70334715760819      1.50784179350707      0.00145688461701
  C   0.66550376018758      1.73259186705532      0.00179987646723
  C   1.82399964426206      0.93887638093874      0.00118328174357
  C   3.01796195115796      1.72714852576739      0.00194083501297
  N   3.92260624804682      2.45263994256754      0.00245110671150
  C   2.03910330364557     -0.43851639983606      0.00004849902894
  N   3.31125776556557     -0.88242086062155     -0.00008522275341
  C   3.19693981770386     -2.22107712386218     -0.00109454068845
  N   1.95643169865681     -2.72961060718737     -0.00171236786936
  C   1.13987179336281     -1.65279968145036     -0.00104321716466
  N   -0.15322367725963     -1.87883005937760     -0.00156085472978
  C   -1.23097810977302     -1.14513527009858     -0.00112829447272
  N   -2.40345202369276     -1.81568026203268     -0.00202798280010
  C   -3.38783209629629     -0.90196331116665     -0.00130063242376
  N   -4.66455189871178     -1.28103284942525     -0.00195733870880
  C   -2.89785506728706      0.43286572020351      0.00014193798136
  C   -1.52548346462879      0.35265989527708      0.00030115040036
  H   0.90521765167314      2.78691431055906      0.00277143328465
  H   4.06979730588601     -2.85732348813406     -0.00140106135346
  H   -4.88276065127325     -2.26222720424335     -0.00290361629752
  H   -5.41636948520926     -0.61760231625300     -0.00129786873444
  H   -3.49186961516511      1.33197029659407      0.00092218127310
