31
Coordinates from ORCA-job ./opt_b97-3c_parallel
  N   5.82348583793086     -1.05599381515758      0.00036332538456
  C   4.66851924262496     -0.91803345768777     -0.04632691043271
  C   3.29264307246543     -0.66996251020853     -0.08215081337993
  C   2.24916220767655     -1.57674261972859     -0.29565313473496
  C   1.01088277643307     -0.92669884622073     -0.20350085314863
  C   -0.16488641349187     -1.66193341144057     -0.27677933525416
  C   -1.49680954134641     -1.37035651705028     -0.09027750616625
  C   -2.45363466710259     -2.43585310155521      0.08068639958447
  N   -2.24991233541525     -3.76869357575531     -0.05001572293214
  N   -3.65299076240568     -1.99263121220453      0.50041455867335
  C   -3.54455139896211     -0.65663816113101      0.53662400138043
  C   -2.27919268065303     -0.16370658103271      0.16624985844303
  C   -2.06855291018408      1.22025015839184     -0.04014553176379
  N   -3.19356206572301      1.97127492318339     -0.15800759391894
  C   -0.84489552097543      1.96781036827809     -0.09526014048533
  C   -1.01922932029187      3.36747114484172     -0.26294123896899
  N   -1.19150360646163      4.51105751800439     -0.39485821572906
  C   0.50515512411909      1.62247175917805      0.03529210318308
  C   1.28221221034768      0.48535039814631      0.04765593524889
  C   2.71248678637596      0.60353901607657      0.15080367912671
  N   3.43252611824336      1.71864132755477      0.38031320139051
  H   2.38071951965148     -2.63245411741482     -0.47334695942075
  H   0.03862092382090     -2.71814932715135     -0.42317190774899
  H   -1.54071999080941     -4.09951794679211     -0.67817502192927
  H   -3.08572112395691     -4.32715728714002     -0.01620419011086
  H   -4.38545817471072     -0.07432918634489      0.88467189321356
  H   -3.14108818801183      2.97173740088712     -0.23611300692233
  H   -4.06183021558832      1.54100005209160     -0.40554954534308
  H   1.10591463587295      2.52527132622714      0.06510978640917
  H   3.01343895674923      2.51067679826726      0.83085944740195
  H   4.42524396887844      1.62417290078847      0.51020856055043
