34
Coordinates from ORCA-job ./opt_b97-3c_parallel
  N   -5.44424978696432     -1.90153084296797     -0.44193063201772
  C   -4.34340513482491     -1.59619336692100     -0.21685900704937
  C   -3.03957987742166     -1.15230721649258      0.02784908909154
  C   -1.93384726124293     -1.89573785557564      0.42976787682125
  C   -0.79478503126178     -1.06781376073186      0.45410647903830
  C   0.44771603563709     -1.66864205663254      0.61729391401884
  C   1.72438621746727     -1.30837945375647      0.24417195950431
  C   2.72764562506560     -2.32630897981621      0.10652555100833
  N   2.66805641528446     -3.58272157198910      0.63873055699794
  C   3.71496990403351     -1.87089208107319     -0.78347525135339
  C   3.40397363163136     -0.57187579714501     -1.14183662355761
  C   2.22491375003441     -0.14033675769018     -0.48073837248545
  C   1.91339195356124      1.21128358175206     -0.32590297827672
  N   2.81153575657526      2.11409735332773     -0.83038898643198
  C   0.81114112633276      1.82863222547212      0.37641280857094
  C   1.13491765026412      3.08660512493121      0.93308378044260
  N   1.37669765975071      4.13053943715370      1.39456903961719
  C   -0.57175755566176      1.51589272919748      0.40997651334202
  N   -1.39893056255588      2.55497970091066      0.73386580890036
  C   -1.23205795242664      0.28795928971519      0.13511756190850
  C   -2.62005059189006      0.20043095319651     -0.14238895121482
  N   -3.50226689438948      1.20055833918648     -0.45969713559605
  H   -1.92901637031837     -2.95829272387686      0.61059594099763
  H   0.35523271490982     -2.70219808444574      0.93624209591397
  H   2.22809996621591     -3.68287099572112      1.53672330735562
  H   3.49579394830833     -4.14430866896416      0.54380072080276
  H   4.56550827097725     -2.44024300293403     -1.12540773350043
  H   3.99832020150437      0.02232163130307     -1.81853513553251
  H   3.78178795295707      1.86293918005588     -0.86103584261766
  H   2.63958981715779      3.09325603642829     -0.68852535034914
  H   -0.99199973544682      3.43324423027410      1.00729181637084
  H   -2.28735680098277      2.34125772141330      1.15323779163300
  H   -3.11661735330733      2.01115362382663     -0.91517298768179
  H   -4.37090883867365      0.88773538229007     -0.86449305557127
