31
Coordinates from ORCA-job ./opt_b97-3c_parallel
  N   6.03601156053477      1.22900772834336      0.45954028069606
  C   4.90928256880622      0.95292267580598      0.35985601481047
  C   3.57854214784117      0.55423012733775      0.20011161746960
  C   2.41698090604107      1.28637263221812      0.48313735340791
  C   1.27611638840523      0.53052765797894      0.18591748796579
  C   0.00293169543816      1.14177730840202      0.02849274014263
  N   0.01608047165131      2.50736580499141      0.06118780236163
  C   -1.27261537109418      0.54135360877001     -0.14084934905828
  C   -2.41288845014880      1.30132208369260     -0.43810085644900
  C   -3.57531282959061      0.56311545469849     -0.18443153250060
  C   -4.90412692309206      0.96234682197153     -0.35852749659528
  N   -6.02922180310404      1.23917457479863     -0.47287581720448
  C   -3.18492772358826     -0.71115445680788      0.29979307629863
  N   -4.06292214881893     -1.70549890394633      0.56665883609496
  C   -1.75648121177458     -0.77522957861162      0.28277889277044
  C   -1.11203366580293     -1.98484268892495      0.50523098732671
  N   0.00091635592461     -2.49070682086495      0.03170169385961
  C   1.11034498182588     -1.99101073995866     -0.46196892026687
  C   1.75406442345677     -0.77987128196974     -0.26125514671200
  C   3.18466811760915     -0.71196877045060     -0.29892045205440
  N   4.05937425371259     -1.69992445748913     -0.59597417834643
  H   2.43322560007991      2.29381633531885      0.86465019224977
  H   -0.83942780374076      3.01979322600222      0.14291805219389
  H   0.81262169415734      3.01315369702442     -0.27448022603927
  H   -2.43678431529951      2.31396366193919     -0.80654155452877
  H   -3.76640182319957     -2.51024407793443      1.08700591464406
  H   -5.03085202918439     -1.45582283371973      0.67552045721400
  H   -1.68050559287804     -2.72412858534266      1.06958134137579
  H   1.67424012496641     -2.74004629787287     -1.01736403336687
  H   5.02746902201238     -1.44953681042566     -0.70173373174550
  H   3.75950066985354     -2.49185247987409     -1.13364307771383
