34
Coordinates from ORCA-job ./opt_b97-3c_parallel
  N   5.24189738684301     -1.63052906576106     -1.20192336273456
  C   4.19814466191727     -1.27735039737730     -0.82150639747846
  C   2.97041302864358     -0.78794778000864     -0.37026824780343
  C   1.81662952660077     -1.52010305508049     -0.04273417569454
  C   0.77708688439495     -0.63294518480482      0.26500007925618
  C   -0.50682127880292     -1.13568140603556      0.64041903119899
  N   -0.47645642189850     -2.37631151311069      1.28661896823672
  C   -1.76162047257145     -0.63514129009672      0.29794028220284
  C   -2.92502366113321     -1.45669852842235      0.15177273303134
  N   -3.04712407375886     -2.78405369428867      0.46261196193345
  C   -3.95603685123561     -0.72400276633712     -0.45675894165938
  C   -3.49112863528249      0.55293437712726     -0.72340497459015
  N   -4.20801123290549      1.51225060460141     -1.37085649391643
  C   -2.12652822023694      0.67355247598617     -0.24832257760353
  C   -1.54725931519519      1.91185192131214     -0.14717687215087
  N   -0.47812267223117      2.40850092112946      0.46550588662325
  C   0.73138940999315      1.93310478971328      0.63439742731172
  N   1.58386036059039      2.82130884083660      1.24473350718533
  C   1.31590917119270      0.71131081536138      0.17546160429670
  C   2.67895154505553      0.58813515187568     -0.18550625127285
  N   3.63022961766947      1.58007250738789     -0.28622559071216
  H   1.73274018284461     -2.59050449339942     -0.13593140484005
  H   0.42607139731821     -2.58156516578925      1.68023054608720
  H   -1.19800798160731     -2.48824893739259      1.98072151916689
  H   -3.80455658150280     -3.25569287186339     -0.00394988302565
  H   -2.18504751891954     -3.31110792717520      0.45277387168945
  H   -4.92378722795821     -1.11810239778741     -0.72780024250363
  H   -3.87566858008649      2.45886048460552     -1.33962153130905
  H   -5.20904058372675      1.43440780577578     -1.33348548391907
  H   -2.13771274214706      2.71876189127329     -0.58223027118169
  H   2.36846999999686      2.45585891516433      1.75660495212682
  H   1.14007751229686      3.64304905092702      1.61894641222001
  H   3.27523190576056      2.50246502109771     -0.47984086341558
  H   4.42216908348258      1.33545281985542     -0.86019816325587
