33
Coordinates from ORCA-job ./opt_b97-3c_parallel
  N   1.43949883295560      4.71596474282072     -0.01531012806074
  C   1.20657875270122      3.57630708168748     -0.00923527983245
  C   0.92310555279922      2.18059698857565     -0.00224847585036
  C   2.07509257429633      1.37799514128609     -0.08568197951973
  C   2.32829219242727      0.02891852742575     -0.04385781470092
  C   3.68505138153024     -0.47698028309890     -0.08145932099160
  N   4.81530419849983      0.23137707301406     -0.19289667473917
  N   3.76307756447553     -1.81164822150709      0.05226724946844
  C   2.48785457409190     -2.22718080506896      0.16257902322923
  N   2.24670469541404     -3.54768063988667      0.30490931086913
  C   1.52088575052828     -1.16842741376198      0.07468346028431
  C   0.16696399455438     -1.43411804810150      0.00692086154892
  C   -0.98466038980552     -0.66560706932211     -0.05659886423243
  C   -2.25987129593275     -1.30368784371711     -0.15325624478744
  N   -2.50500672738018     -2.62369285869357     -0.29968258097883
  C   -3.29102319728917     -0.34718407270158     -0.02034071588081
  C   -4.65873180108787     -0.59795305001006     -0.06787434067723
  N   -5.80499673933344     -0.81137849509527     -0.10760637294716
  C   -2.67522882279958      0.91527405324310      0.11710258856878
  N   -3.37368971999179      2.05128701847019      0.23048231484779
  C   -1.24127199779087      0.76448004666831      0.06379063004786
  C   -0.44807323761834      1.89220151248822      0.09129089727427
  H   2.96696259915940      1.99054278057873     -0.15195880295573
  H   4.80677002053413      1.20101629988562     -0.44448413258237
  H   5.67542476727310     -0.27418941650107     -0.30449481766511
  H   3.05375206394464     -4.11406410066345      0.50305119735937
  H   1.39478785008070     -3.84295350731362      0.74448513716448
  H   -0.04480411783759     -2.49925412967039      0.01256744060544
  H   -3.45341813102926     -2.89971578135013     -0.49016787107236
  H   -1.80763917442117     -3.20092788815873     -0.73228428306147
  H   -4.37320339473480      2.01564537401396      0.31959277511284
  H   -2.93007588192335      2.92642602248169      0.43373668233144
  H   -1.01541162189009      2.81305249428260      0.15551674032359
