25
Coordinates from ORCA-job ./opt_b97-3c_parallel
  N   2.02942788217559     -3.71247598235625      0.00637128161070
  C   1.42510314707057     -2.72225827834271      0.00415512042028
  C   0.69080949774722     -1.49371012427033      0.00164828003314
  C   -0.67486155264472     -1.71242357105315      0.00090362518515
  C   -1.83471984673344     -0.90936937093755     -0.00124255987699
  C   -3.02875878880919     -1.70103768316839     -0.00092277685953
  N   -3.92139089259255     -2.44096208875439     -0.00032324117652
  C   -2.04843427402951      0.46101477413932     -0.00356435966194
  N   -3.33777557841594      0.88353204140409     -0.00524220729011
  C   -3.31078064748017      2.22455179730626     -0.00730183616214
  C   -2.01466090078085      2.74602676623281     -0.00708420724346
  C   -1.13307034013768      1.66274180291291     -0.00471112319598
  N   0.16891160149284      1.88692044910328     -0.00403800723326
  C   1.24061738946658      1.14785232377318     -0.00205832053403
  N   2.42545056193846      1.81629163567851     -0.00220509356525
  C   3.39837202590177      0.89954324312884     -0.00000646073305
  N   4.68586473148389      1.25806589731149      0.00052214400589
  C   2.89443432792832     -0.43242158902155      0.00172218618729
  C   1.52193657257864     -0.34020060105473      0.00050192008008
  H   -0.92134479348423     -2.76496725456380      0.00234119565439
  H   -4.23732687925244      2.78057408540719     -0.00890506711611
  H   -1.70745278771657      3.77782225808680     -0.00844308997411
  H   4.92184763796562      2.23432241724365     -0.00132055794965
  H   5.42482720510866      0.58133087401227      0.00152152416189
  H   3.47970367591925     -1.33749831011796      0.00362918143292
