33
Coordinates from ORCA-job ./opt_b97-3c_parallel
  N   5.68545654019391     -1.34433983318437     -1.10477459094645
  C   4.61926380349088     -1.05052071916118     -0.74504342055521
  C   3.33455235779839     -0.69807561736429     -0.30243880362577
  C   2.87142774486534      0.60651277414291     -0.05180918543724
  C   1.50997340341393      0.55017192040536      0.28504518349308
  C   0.81517536330031      1.76091400512999      0.62867468880095
  N   1.55170995943296      2.66727901366700      1.29979726029449
  C   -0.46836614247187      2.15362941397966      0.19498018933861
  C   -0.79827413549147      3.51211099115963      0.41089216961920
  N   -1.02313049078741      4.63700488128470      0.61072628009548
  C   -1.45440274856340      1.41738048488829     -0.49665689146578
  C   -1.79849957407703      0.09522901616599     -0.51804559440201
  C   -3.10824078218272     -0.28641444262514     -1.00057858659648
  N   -3.89366512863824      0.41682732140463     -1.83499308498737
  N   -3.56028309576726     -1.40971255988580     -0.43169883807897
  C   -2.56600812658124     -1.84384248854609      0.37373620892106
  N   -2.76256632002054     -2.99390402208613      1.08165482482993
  C   -1.38679868056464     -1.04962725912509      0.30123598752892
  C   -0.10319777598820     -1.49753398234458      0.60781750434637
  N   0.03867248960061     -2.73170359149206      1.18820147769543
  C   1.12386960173667     -0.83662490088670      0.27859460820727
  C   2.26987939929668     -1.57979839425829     -0.06799902048919
  H   3.45122513745784      1.50347981446589     -0.19689163595213
  H   2.46123312759157      2.41445374092570      1.63598779371566
  H   1.23942999317489      3.61589742449684      1.42366305083169
  H   -2.17382204441668      2.06680465400585     -0.98483641908597
  H   -4.77186775922506      0.00093630782534     -2.09080275605765
  H   -3.48126619342777      1.04011872250000     -2.50333254662806
  H   -2.33730961832150     -3.03136166517524      1.99453615234520
  H   -3.72241506074243     -3.30223321089991      1.07080780905286
  H   0.98363913272598     -3.04073872001065      1.33070455449542
  H   -0.61040647153547     -3.45846299325878      0.92788633433146
  H   2.31576297012286     -2.64306687034309     -0.24014768103430
