29
Coordinates from ORCA-job ./opt_b97-3c_parallel
  N   5.99118877647665      1.72533583605420      0.21434456812759
  C   4.89184081906292      1.35843228771994      0.13003315516941
  C   3.56679577027409      0.90223490868908      0.02219365488072
  C   2.41219636487060      1.66742366893710      0.13500184827154
  C   1.27951184104110      0.82203850678082      0.00537903847124
  C   -0.00079478948934      1.35953326317895     -0.00587544169476
  C   -1.27953710689295      0.81824785702857     -0.01354573925556
  C   -2.41465771218497      1.65950047624863     -0.14864553306156
  C   -3.56704741848184      0.89176608636389     -0.03067409153208
  C   -4.89340939692110      1.34343938989234     -0.14131830879958
  N   -5.99381942518625      1.70659892086161     -0.22795883286721
  C   -3.17484601794469     -0.44872576515318      0.23505285212790
  C   -1.78866488969304     -0.52050513602872      0.23862299379667
  C   -1.08282211812394     -1.72899872027092      0.55973895181582
  N   -1.69627813390861     -2.56734112455863      1.42562401144552
  N   0.00435298126244     -2.19848364976803      0.00578014214621
  C   1.09018041999766     -1.72947816284821     -0.55119802321876
  N   1.70614938688099     -2.57170815222969     -1.41154646573436
  C   1.79251663680310     -0.51687088852084     -0.23796659457159
  C   3.17847741076233     -0.44108452045373     -0.23476976520994
  H   2.37261120057757      2.73148160007081      0.30237034619968
  H   -0.00238696347734      2.44542788110567     -0.00943835822345
  H   -2.37813258904558      2.72255239775971     -0.32298432884480
  H   -3.85741715302991     -1.27434006592084      0.35666789635595
  H   -2.41663011455479     -2.22490272510520      2.03202931275522
  H   -1.25546471592133     -3.44253694375094      1.64613443242063
  H   2.42511904352366     -2.23091987673050     -2.02051736423247
  H   1.26758725556865     -3.44937856916132     -1.62664312232408
  H   3.86341134705406     -1.26552273509021     -0.35092300181388
