29
Coordinates from ORCA-job ./opt_b97-3c_parallel
  N   1.86634419409334      4.20656660937896     -0.13999620899668
  C   1.36567594999655      3.15767200985332     -0.10330679001996
  C   0.75944825111326      1.86883079253994     -0.05537153335639
  C   -0.65015938383045      1.91503568890220      0.01297235349132
  C   -1.67257196089782      0.99848301640579      0.04477397115010
  C   -3.01710624067052      1.48782380836978      0.09546120907819
  C   -3.90686386861818      0.44703189511217      0.08880555540935
  C   -3.16197765383221     -0.75991277684690      0.03097470412978
  N   -3.73870456543260     -1.99283107415842      0.04582346676710
  C   -1.76826178084429     -0.46092591645464      0.01809372276330
  C   -0.81982652777675     -1.47397211758541      0.01942960114592
  C   0.55935124812427     -1.54397674164515      0.01075460023693
  C   1.18410660000863     -2.81924516846025      0.02653823241498
  C   2.55624465668625     -2.69492553820049      0.00750639925369
  C   2.86244210814832     -1.31951105721803     -0.01996508770101
  N   4.12766653573725     -0.82904940747584     -0.08643673524411
  C   1.64064083368375     -0.55813473283442     -0.02679762895019
  C   1.68590818352106      0.82039053707639     -0.07271464247068
  H   -1.01543289551542      2.93556929989489      0.03596039553276
  H   -3.26963901059022      2.53694981078974      0.12044045426757
  H   -4.98352127737459      0.51400171950054      0.11683107504436
  H   -4.71431568371174     -2.03878260830596     -0.18886065704211
  H   -3.20744593687436     -2.77368814248165     -0.29593324318539
  H   -1.25218944303424     -2.47042943523892      0.05609309607753
  H   0.64024035853765     -3.75204040777748      0.05652379006113
  H   3.27818930910693     -3.49662268151587      0.01248225609071
  H   4.87478800942060     -1.45360009352474      0.15863905615445
  H   4.29603520767018      0.12642201075806      0.17308340246493
  H   2.69443320205534      1.21323255564237     -0.13916328696761
