29
Coordinates from ORCA-job ./opt_b97-3c_parallel
  N   5.87961004460397      0.49513390766882      0.47758326892727
  C   4.73261099221643      0.47560208586239      0.29307717893755
  C   3.34619455521594      0.43921393189964      0.06528036416205
  C   2.50155409072001      1.52820221963661     -0.10240474546835
  C   1.16780031824785      1.06142625445521     -0.22864683588974
  C   0.12855695131844      1.96735712278360     -0.34598043713445
  C   -1.24159408594206      1.85761039581878     -0.19672660958674
  C   -2.06616940207549      3.00929908052769     -0.29363836029895
  N   -3.33587561532515      2.77030056998272      0.03298246724896
  C   -3.37686626968462      1.47153977032643      0.40182630901869
  C   -2.13126730449219      0.82360269054701      0.29401407468754
  C   -1.99432958253490     -0.56552522977589      0.53626704448437
  N   -2.91537285920613     -1.12166350807443      1.34343591358747
  C   -1.11074905017551     -1.49660898566556     -0.11375770459984
  C   -1.68413472031835     -2.77292211620439     -0.29350459201401
  N   -2.13993126129139     -3.83500694148341     -0.44337380573628
  C   0.24351878308375     -1.40276657278935     -0.50955357848767
  N   0.75536596070382     -2.47785802381115     -1.14437544480318
  C   1.22168418571602     -0.39159436555226     -0.20600281402422
  C   2.55982830634355     -0.73895674781498     -0.02900367642823
  H   2.79311799612837      2.56564744258237     -0.08870343876729
  H   0.45958737691981      2.98449850330486     -0.53433622361584
  H   -1.73194860706741      3.99700675939783     -0.57950001082740
  H   -4.33132799008981      1.01968440385874      0.63308967472125
  H   -3.62542708866873     -0.55914065356200      1.77187889367401
  H   -3.00617223707553     -2.11952358318418      1.42551469159549
  H   0.21193435738934     -3.30660641883048     -1.31466097476519
  H   1.67051835723389     -2.42405208986968     -1.54739855734027
  H   2.95222722970655     -1.73658214763448      0.08393704784338
