34
Coordinates from ORCA-job ./opt_b97-3c_parallel
  N   -0.98201326706302      4.62105003514653      0.53250665919482
  C   -0.77785450972776      3.48885983851252      0.34677878992375
  C   -0.58793740871876      2.10317452893979      0.14040207174103
  C   0.66799001231819      1.76930557511398     -0.40547450406074
  C   1.46760730214000      0.65787576944564     -0.38281759114360
  C   2.87384060688663      0.83637972444590     -0.68596291940588
  N   3.39324606747800      1.89201635991832     -1.37200343549004
  C   3.60814043271874     -0.14484779971336     -0.03679211346818
  C   2.71054554499171     -1.00730927625317      0.60979039576621
  N   3.11824246851613     -2.10639290813514      1.32974690423923
  C   1.36368171212305     -0.62613304517206      0.32504013483690
  C   0.27605969864226     -1.50500383999932      0.36878591841320
  N   0.49848317118952     -2.78827517401241      0.81750156494627
  C   -1.05960928383202     -1.23678552242122     -0.05688857208077
  C   -1.94900499533444     -2.23772515323516     -0.53582259239021
  N   -1.66878478591804     -3.58448486952724     -0.80458385579802
  N   -3.20080811494128     -1.78656967966182     -0.71196094393176
  C   -3.18183900280399     -0.50172063057844     -0.31228988996881
  C   -1.90242587721004     -0.06969919259577      0.07632287773085
  C   -1.69356187133436      1.28284642974732      0.46757678885592
  N   -2.73645799069338      1.87429059458260      1.09554252766136
  H   1.17498917754156      2.65198862389796     -0.78018092868193
  H   2.84227105261712      2.27773207833593     -2.11795651647326
  H   4.37673885433042      1.86376548646452     -1.57315471646144
  H   4.68412642653753     -0.23219676724436     -0.01960657923489
  H   4.08788762947554     -2.08912861066432      1.60053006598007
  H   2.51385606030108     -2.36583965506609      2.09405565155177
  H   -0.27914762094093     -3.42352911502592      0.71052252154183
  H   1.39189641165243     -3.20473744049040      0.60575880656680
  H   -0.89103991453442     -3.70789859282846     -1.43886760231945
  H   -2.49425727031672     -4.01272045136803     -1.20078378295997
  H   -4.06295048576147      0.11309798298961     -0.42558481389232
  H   -2.79766903005744      2.87484838373049      1.17838371316338
  H   -3.53879554677168      1.32683733682195      1.33978033664852
