22
Coordinates from ORCA-job ./opt_b97-3c_parallel
  N   -4.31751793516853     -2.19732022882493     -0.36843245991411
  C   -3.50504914647247     -1.37398550171038     -0.25980302886346
  C   -2.50205071725088     -0.40213412869124     -0.12580293766134
  C   -2.71617631933143      0.97440153998583     -0.04242772869544
  C   -1.48297885767988      1.62029263718462      0.09430454316711
  C   -1.29932202789921      3.00812442979837      0.19045860553796
  N   -1.18841432118702      4.16070374101541      0.27017384557359
  C   -0.43599398401859      0.65542796485810      0.09113523773810
  N   0.80233514825478      1.07452181542511      0.13236923094637
  C   1.95733840199182      0.45473821051606      0.06275787324160
  N   3.06732709957878      1.22087336587292     -0.04646098051239
  C   4.06418289412665      0.34551186079521     -0.22382741742103
  N   3.75077736566763     -0.96666012591503     -0.18921572706767
  C   2.42014251872918     -0.99622836469124     -0.00289067055884
  N   1.85475939939915     -2.18021041569536      0.15419560150373
  C   0.61316189146317     -2.57719103901390      0.24212910840283
  C   -0.64957478482315     -1.97016570597685      0.06706012335234
  C   -1.10485675997035     -0.68056267090322     -0.02643718888741
  H   -3.67655856510933      1.46051712216559     -0.08084393407484
  H   5.08233688041640      0.67305307904104     -0.37387607686956
  H   0.53387387140551     -3.64244170109270      0.44327531545334
  H   -1.44263680062298     -2.71045738314392      0.03829478690991
