30
Coordinates from ORCA-job ./opt_b97-3c_parallel
  N   -5.16152578101041     -1.06467127344773      0.02369702739172
  C   -4.22551227009010     -0.38080128723123     -0.06095648110218
  C   -3.19921823495752      0.55890111524979     -0.24118023939623
  C   -3.48624070524251      1.82372986108038     -0.83593064626006
  C   -2.32044941420062      2.51444987411777     -0.97938138687640
  C   -1.23238682077218      1.73053446299926     -0.46603114495662
  C   -0.03395516513612      2.35731006634585     -0.27051434760625
  C   1.20929538053148      2.03128078917054      0.32910741711403
  N   1.89685461347021      3.12351382907205      0.78049130121394
  C   1.85659097356080      0.78270013411455      0.30750854900774
  C   3.18516664150412      0.84556302796707      0.80441988643032
  N   4.21983281031319      1.00453148563113      1.30955017188608
  C   1.42094973334119     -0.50085621575976     -0.11943244858037
  C   2.33835544989291     -1.50855931810210     -0.47962306829742
  C   3.66472970444456     -1.33726631244962     -0.90072457172683
  N   4.75121855282877     -1.24423468308898     -1.30349217888249
  C   1.69390922335490     -2.77594195470900     -0.41991319190402
  C   0.40646702344812     -2.59459682493098      0.00895754844257
  C   0.14241852239612     -1.19551526782475      0.13143552495229
  C   -1.16645987616950     -0.75569475954597      0.34472707736892
  C   -2.00222692610358     -1.75438869925715      0.93599522567042
  N   -2.60060632327279     -2.56518256922389      1.50953244834609
  C   -1.80463446673124      0.44474458002623     -0.03078974106155
  H   -4.47574244482400      2.14502900248271     -1.11553086177589
  H   -2.21240483198948      3.51955561978780     -1.35436666492949
  H   -0.05107684123819      3.39443116111747     -0.58941126606842
  H   2.78480125223682      2.99871585481056      1.23656561277976
  H   1.37838201504161      3.93573523647662      1.05789196537968
  H   2.15571267652001     -3.70931671941298     -0.69563679926629
  H   -0.33533928114724     -3.36591396386676      0.12132178420642
