32
Coordinates from ORCA-job ./opt_b97-3c_parallel
  N   -0.54714217718690      4.83740941004803      0.98142496819453
  C   0.16278881237376      3.97520657231527      0.65552922181662
  C   1.02128016705901      2.93851400069015      0.27377720765645
  C   2.34066559804968      3.10652689708785     -0.20792863424346
  C   2.85550142602555      1.87777366767430     -0.54408481301111
  C   1.90237344158811      0.86204476966316     -0.23692504561496
  C   2.27291739899052     -0.48023055141557     -0.23428012999688
  C   3.59359533772040     -0.71571700329479     -0.71595389167540
  N   4.66234033178297     -0.93651190347259     -1.11434136606072
  C   1.66370406911173     -1.68424834113625      0.27597630974588
  N   2.55014941290086     -2.60982669163740      0.73916246406365
  C   0.30222630902733     -2.06954177864486      0.24191775364689
  C   0.12084673994579     -3.45295328528304      0.51774096204484
  N   0.01486543012355     -4.58543885846352      0.75658398891380
  C   -0.91819704887936     -1.41328999866933     -0.05954126969606
  C   -2.07563711467310     -2.15086822065558     -0.32164452906185
  C   -3.18863241161704     -1.29819408072463     -0.33806152623680
  N   -4.46238678578078     -1.63005849121224     -0.58661266125344
  C   -2.73482159921443      0.01908927702222     -0.05167266922632
  C   -3.58815623295341      1.11975094860353      0.01945540734802
  N   -4.36427154976675      1.98678698987415      0.06926721886673
  C   -1.32386548052485     -0.00232635187049      0.08920228703704
  C   -0.63801224039209      1.17168568771582      0.33290526111722
  C   0.68299047824309      1.56076840072497      0.22388073037955
  H   2.84809443266651      4.05394054327161     -0.28888497909691
  H   3.85662242683019      1.69553392213965     -0.89406079924776
  H   2.27386046683747     -3.57272985213528      0.82670293660392
  H   3.53558599405420     -2.45036576953179      0.63026374769762
  H   -2.11756451400999     -3.21862976492790     -0.45575619056490
  H   -4.73224878805250     -2.58511746555263     -0.72720780021489
  H   -5.19289433199904     -0.94394919709632     -0.51725069373489
  H   -1.30087015828264      2.00574449748934      0.54224418130470
