30
Coordinates from ORCA-job ./opt_b97-3c_parallel
  N   4.67749762695461      2.74788969131448      0.07983380444269
  C   3.62459892845092      2.26315249347330      0.03458467392215
  C   2.30217385114323      1.71612168717574     -0.01202669099014
  C   1.33939260577097      2.73802895314872     -0.03318215242371
  C   -0.02215605132757      2.78269217142112     -0.21360889328041
  C   -1.07198787809468      1.86604657001503     -0.28552190253830
  C   -2.36074188514433      2.34874707536613     -0.53747208856006
  C   -3.28801290022649      1.30607612721721     -0.42987095009709
  N   -4.61477127080716      1.36434603115602     -0.61895231026323
  C   -2.57578454393996      0.13143786039506     -0.05218006222512
  C   -3.26876186216770     -1.08169272323368      0.02002958937973
  N   -4.00866801720502     -1.97976732095724      0.00473727371526
  C   -1.18855203495248      0.42952244966802      0.02366263288436
  C   -0.23041071501478     -0.54649071900601      0.34349026057837
  C   -0.76845355596871     -1.64897693448619      1.07780856181636
  N   -1.17532805222770     -2.43274500680022      1.83086139058761
  C   1.15284813459092     -0.66252120691511      0.08078017193993
  C   1.77579277999104     -1.93857684943239     -0.00699591470531
  C   1.18267648553970     -3.20928211386199     -0.06743802318671
  N   0.78585339113337     -4.29576464036339     -0.18051210077347
  C   3.15944877754592     -1.76738531837912     -0.23858213736084
  C   3.44339931371398     -0.42344726154782     -0.25720805464596
  C   2.24704925369784      0.32056898351426     -0.09334940134672
  H   1.78421547182355      3.72271533354404      0.01751056200012
  H   -0.37593933785545      3.80062384062952     -0.33502592979058
  H   -2.59698248735365      3.37974694208818     -0.74856719841449
  H   -5.03648134597481      2.16850623505902     -1.04381125767567
  H   -5.16047692257561      0.51961147931267     -0.59171705204841
  H   3.85316808476245     -2.57688666392069     -0.39411521251263
  H   4.41913757621307      0.01154497311257     -0.38861458675013
