31
Coordinates from ORCA-job ./opt_b97-3c_parallel
  N   3.81184095786964     -3.65023489116579      1.16833508876469
  C   3.54179981765362     -2.59006596526954      0.77263551464847
  C   3.21320690435360     -1.31345265839634      0.30483967053031
  C   4.11055588187003     -0.41491451518836     -0.32898392981572
  C   3.42388181428780      0.69812758929496     -0.74139845720869
  C   2.06282586301388      0.59439691795432     -0.31949095177381
  C   1.22994977961891      1.70030578642724     -0.32023837844376
  C   1.77146392680345      2.85971243472942     -0.94513681724298
  N   2.19134253435373      3.81395313107001     -1.45718588111263
  C   -0.02570242777713      1.97237250157995      0.35236741814056
  N   -0.12882688080375      3.22811239858251      0.85107333545797
  C   -1.15723180414689      1.13957860755757      0.43678341163851
  C   -2.28898613452035      1.79166737010310      0.99077325575459
  N   -3.14786895640514      2.38314575740513      1.50419396243221
  C   -1.38998135030324     -0.20414954703155      0.03637830467048
  C   -2.66032101078853     -0.71280007447027     -0.25427955442346
  C   -3.85556351177651     -0.06019442286866     -0.56550690478790
  N   -4.89124628438685      0.37194836658188     -0.87275770626633
  C   -2.52928315966951     -2.14204318910165     -0.24974779595768
  N   -3.50054457193615     -3.01229373558554     -0.52458785221327
  N   -1.28707062051946     -2.52771478433002      0.06029245258066
  C   -0.54406300375024     -1.39834912030162      0.19092003893448
  C   0.80626361576983     -1.56680278775927      0.46139007497979
  C   1.91048460742263     -0.76019792132458      0.27624882537191
  H   5.16592895955323     -0.59413844235526     -0.45592904508336
  H   3.85832274783415      1.56828669506701     -1.20216455625071
  H   -1.02737916280126      3.60538210250650      1.10129037439675
  H   0.61189102552022      3.89103068191936      0.71264760641591
  H   -3.30210880727159     -3.99630585424263     -0.50762649431448
  H   -4.42386292686356     -2.70231736569600     -0.76808586769396
  H   1.03864258509067     -2.59651261479271      0.70732041087543
