29
Coordinates from ORCA-job ./opt_b97-3c_parallel
  N   5.71955873477929      0.14450345782313     -0.38419590192282
  C   4.57305749087850      0.00769946149690     -0.24912881273340
  C   3.18781220425553     -0.15196586348503     -0.07797417195991
  C   2.46166203933798     -1.33537584212682     -0.22779964041471
  C   1.09246343001379     -1.06934953009278     -0.01860472659144
  C   0.19778108043936     -2.14412923604703      0.03966179185413
  C   -1.15186993711178     -2.30729220044662      0.20241932888286
  C   -2.26497036272169     -1.44740530490297      0.09360794967598
  N   -3.46384587955632     -2.08360110278180      0.20829975069723
  C   -2.33369405682506     -0.06866330293949     -0.23250485011493
  C   -3.52549025594830      0.48949469578811     -0.75811981576224
  C   -3.40893202306913      1.87229445561915     -0.80631965597488
  C   -2.17444967802067      2.22298975402879     -0.26035148571898
  C   -1.45978557283181      1.05161005497866      0.07523670855709
  C   -0.14138345252032      1.16508602405209      0.59845567979676
  N   0.10962305423912      2.28670940205268      1.30403037546212
  C   0.98453944664512      0.34388560614537      0.30985653004508
  C   2.28216718639803      0.86939652041587      0.27909362030112
  H   2.87710662718440     -2.30452970498682     -0.45203980512855
  H   0.71706616144940     -3.09588123817640     -0.01932341431278
  H   -1.43591550302163     -3.34487245812372      0.34605136044664
  H   -3.49695948046181     -3.06714921232224      0.39982256025450
  H   -4.29332237750004     -1.55386960149052      0.39361315525001
  H   -4.35573937584354     -0.07736082715824     -1.14893899962494
  H   -4.12472134115421      2.55499766963973     -1.23688438089803
  H   -1.76647958316050      3.22176568146061     -0.24593275717929
  H   1.00810812989919      2.44026380778275      1.71927772324893
  H   -0.64655640025780      2.87919325829620      1.58805319134101
  H   2.56450704848461      1.90371102330064      0.39210870052342
