27
Coordinates from ORCA-job ./opt_b97-3c_parallel
  N   -3.97705090017134     -3.21146955327219      0.00241260232833
  C   -3.09607416291541     -2.45692999202445      0.00216852837088
  C   -1.98516716673055     -1.55433528474821      0.00189684475277
  C   -0.76762635585092     -2.24563242553298      0.00007170073184
  C   0.56466418631450     -1.89077560080599     -0.00105021431423
  C   1.29728890094516     -0.71041897136548     -0.00056331313076
  C   2.71127688729500     -0.75115323178457     -0.00219240214617
  C   3.53866869931748     -1.87430342826219     -0.00465475371740
  N   4.26543630760947     -2.78352725807331     -0.00668185550531
  C   3.15497130314319      0.59549554245629     -0.00070720798363
  N   4.41315790272098      1.03451773781417     -0.00129614080474
  N   2.11615801882429      1.45181747972854      0.00171570072655
  C   0.98177712253854      0.72909311807311      0.00186200805850
  C   -0.22814328963236      1.46004791320918      0.00392938033371
  C   -0.02409270327558      2.87917078750848      0.00580021812766
  N   0.17977864951749      4.01979861357854      0.00703047461818
  C   -1.57928830521264      1.09049801993569      0.00442896369476
  N   -2.45791224110955      2.12002945095520      0.00624851031452
  C   -3.69374307432677      1.59593650257367      0.00636322934763
  C   -3.68416030027992      0.20622053203435      0.00475147221434
  C   -2.34002660645492     -0.19737549914006      0.00339382487478
  H   -0.90543909331208     -3.31858864924965     -0.00077710554671
  H   1.20926722289908     -2.76302245172103     -0.00273226788470
  H   4.58631165990983      2.02374643826213     -0.00071098665725
  H   5.19120045162138      0.40112305433836     -0.00396541204294
  H   -4.55816980889471      2.24293877168093      0.00762681164714
  H   -4.53996205338966     -0.44676480546857      0.00455999479223
