31
Coordinates from ORCA-job ./opt_b97-3c_parallel
  N   -3.26092013236632     -2.93695318257201     -0.29084362368539
  C   -2.80520572458025     -1.87067381588508     -0.18210988769649
  C   -2.48474458504123     -0.53020060542334      0.04890107370874
  C   -3.45915715851530      0.31352814902410      0.69322236715791
  N   -4.71272632242678     -0.08625781806973      0.95502536220129
  C   -2.88091551034694      1.54808553557149      0.94788727435035
  C   -1.55933147974229      1.55125710135275      0.45924572535183
  C   -0.89476560616616      2.73889401109564      0.27646498162529
  C   0.36487046344569      3.05458095804386     -0.29335775236563
  N   0.44861042719990      4.28255229221156     -0.88646370596118
  N   1.51599404631476      2.43943046333012     -0.17231149611826
  C   1.91541673903122      1.23553816673018      0.13575147564358
  N   3.20376064692114      1.06991973645436      0.51450754470472
  C   3.43580823402571     -0.24455185826886      0.50817060219489
  N   4.60069915447358     -0.76385664388222      0.88938747700058
  C   2.30206006207764     -1.01297971992541      0.06703988839024
  C   2.32367678725275     -2.40833142796663      0.06613278046560
  N   2.48734057496087     -3.55926372178337      0.13281457748025
  C   1.26283305270409     -0.09247141722894     -0.10536338852982
  C   -0.06463512871634     -0.43125806227592     -0.45077203342846
  C   -0.18234963206783     -1.64570351374363     -1.18160754494923
  N   -0.23539477545254     -2.55876125648353     -1.89743681119675
  C   -1.27027274524905      0.17023758793542     -0.05159390749510
  H   -5.29983478158012      0.45073200358384      1.56519105226533
  H   -4.96701469252496     -1.04798211847787      0.80325290491582
  H   -3.38895327906699      2.41462321098986      1.33939138606411
  H   -1.46447602485076      3.61772011556964      0.55745251080637
  H   1.33606569161078      4.52200417080534     -1.29445648669095
  H   -0.37077464403499      4.68369784359351     -1.30444161989240
  H   4.75640312795878     -1.75593019150799      0.87031131476721
  H   5.32762071140246     -0.15613013877776      1.22080280008667
