28
Coordinates from ORCA-job ./opt_b97-3c_parallel
  N   4.73228438179290     -1.96086490798911      0.57314877964967
  C   3.99178279242021     -1.08663603835306      0.37130719236844
  C   3.08438229848248     -0.04702945441669      0.13636976683393
  C   3.41395557808629      1.27081994780965     -0.20391397223988
  C   2.24518371627950      1.98911560358708     -0.38784278943802
  C   1.12004198851371      1.15918752609509     -0.15813885163847
  C   -0.16724424637442      1.72336914003192     -0.07683603134245
  C   -0.15943072742977      3.13730281973899     -0.26965829240959
  N   -0.19383937971147      4.28825639532731     -0.42163373417149
  C   -1.48520259762107      1.24645268837419      0.21461801582926
  N   -2.37538635860358      2.18355536855347      0.63956672844621
  C   -2.03031164451873     -0.05974918196794     -0.01062178314647
  C   -3.45964322961390     -0.06216579681441     -0.06782600469755
  N   -4.60847503877891      0.10628040602294     -0.06576324438417
  C   -1.49333871171115     -1.33443915122971     -0.17837798650398
  N   -2.40881575844737     -2.32130070294958     -0.42338391918526
  C   -1.75745667126722     -3.48473283958683     -0.36138259507791
  C   -0.40018223182353     -3.31715466309439     -0.05709964189427
  C   -0.17349788748446     -1.93972575309761      0.04270147374341
  C   1.10439975990432     -1.43399655669029      0.24024969858184
  C   1.65948478961930     -0.18393178429528      0.13592887922712
  H   4.41643066162993      1.65375631190270     -0.30180881153263
  H   2.20034191496497      3.03910307926677     -0.61916071258265
  H   -2.11978526731769      3.15505077591028      0.63835353501218
  H   -3.36121020819339      1.98958122171672      0.59374304886669
  H   -2.27996607205962     -4.41397114199703     -0.53306314675239
  H   0.34828041639712     -4.08591302375646      0.05012041459366
  H   1.83774313076539     -2.21163186979899      0.42811831244480
