24
Coordinates from ORCA-job ./opt_b97-3c_parallel
  N   -4.95132845303967      1.05532421762748      0.00616900996841
  C   -3.95296301615166      0.46181576208939      0.00432251618721
  C   -2.76887509023170     -0.28910395668460      0.00222807384566
  C   -2.67352043237443     -1.67693065385962      0.00052983936884
  C   -1.32475292364318     -2.03294877212662     -0.00123897684888
  C   -0.51042723512042     -0.88997712223184     -0.00075288919550
  C   0.88913030185001     -0.99103215072161     -0.00223624855651
  C   1.38515883175963     -2.33762105035103     -0.00406632414020
  N   1.67687880168918     -3.45927503912842     -0.00507551011929
  C   1.90894227380045     -0.03148967728493     -0.00216195883012
  N   3.18108042920332     -0.50955211516869     -0.00404444180676
  C   4.00470431683308      0.54979423591491     -0.00357331385003
  C   3.30620156684948      1.75530293873144     -0.00136932016692
  C   1.93638047756295      1.43995331943700     -0.00039612693513
  C   0.97555838206716      2.44435433201312      0.00175780046411
  C   -0.41052351842828      2.49044921672913      0.00315797494583
  N   -1.37678053524299      1.58579908809700      0.00303936895738
  C   -1.44905827579323      0.28414214020406      0.00156267282330
  H   -3.50630297015384     -2.36056741577504      0.00058334258333
  H   -0.95732003483353     -3.04504036570611     -0.00276561194145
  H   5.07491417262486      0.40857778747729     -0.00483719387230
  H   3.71869006247702      2.75180399780157     -0.00055223718895
  H   1.40936168845776      3.43906714120441      0.00253091563398
  H   -0.80607946986196      3.50178372371176      0.00474426037398
