28
Coordinates from ORCA-job ./opt_b97-3c_parallel
  N   -5.04488393760426     -0.68915213796234     -1.11283359613771
  C   -4.11263900496869     -0.06327093031745     -0.80491312677003
  C   -2.96326680343413      0.63964109129945     -0.43344856663684
  C   -2.85584593303912      1.99241919029124     -0.17438218833291
  C   -1.54206008425901      2.28577031753902      0.22895698891711
  C   -0.76696431661637      1.12692196439830      0.22660106100000
  C   0.63994620822580      1.16483514271413      0.38186109694832
  C   1.15973255181501      2.46378023879637      0.67432502314516
  N   1.50000125011541      3.53894797140024      0.94507345322361
  C   1.62980078068606      0.20648185803244      0.16614094169068
  N   2.90270861622740      0.64186107957961      0.03960907084356
  C   3.65336142836462     -0.42666857339076     -0.28904279490518
  N   4.97146217058809     -0.28023893104254     -0.49493561454724
  C   2.90568545347875     -1.62511153808091     -0.33004089432075
  C   1.59855881106122     -1.28865796171402     -0.01966565354348
  N   0.69789499286219     -2.23821096999270      0.21687523378028
  C   -0.59685636499928     -2.26761488599585      0.34774827846830
  N   -1.09523536735967     -3.43028869135732      0.86247770999711
  C   -1.61206266514488     -1.33441933626905     -0.05884547723390
  C   -1.67917808765447      0.01528985233289     -0.13985670262815
  H   -3.65721444224032      2.70765104054509     -0.26760077346117
  H   -1.17173941083958      3.27169143433637      0.45134335228133
  H   5.34394996795523      0.65307189776978     -0.51173688168477
  H   5.50986914717026     -1.01001605794331     -0.92143285577999
  H   3.26797632356664     -2.62918567067135     -0.47325304756078
  H   -2.07636772365261     -3.63471801187884      0.82009879010335
  H   -0.45818829034237     -4.20197462037638      0.95370510384271
  H   -2.54571952496912     -1.82785593324807     -0.31088409079214
