31
Coordinates from ORCA-job ./opt_b97-3c_parallel
  N   -0.00094798071742     -4.10929882078120     -0.01520704112558
  C   -0.00039273520266     -2.94277934320686     -0.01000663614088
  C   0.00090239824020     -1.53089261591111     -0.00384233099968
  C   1.28006265890462     -0.98274604451005     -0.34751494612623
  N   2.17175562811456     -1.89886997726772     -0.85406176382166
  C   1.83541053710387      0.29076916497136     -0.10023333696888
  C   3.24432572639554      0.52277451280801      0.01376458148964
  N   4.27981969616713     -0.36854410059101     -0.01986737677912
  N   3.55030977518720      1.83238807795735      0.19532873624849
  C   2.38499005390813      2.47259942682245      0.18966221459632
  C   1.26741287503992      1.61729970391481      0.05415475496820
  C   -0.00183358822931      2.15746588447632     -0.00510996416032
  C   -1.27042007782160      1.61491518911296     -0.06010544130674
  C   -2.38979589341896      2.46787069876393     -0.19371107616022
  N   -3.55440349501106      1.82598275870103     -0.19044582086425
  C   -3.24573414956494      0.51779044751358     -0.00515205146238
  N   -4.27949487157537     -0.37527306485755      0.03612901146099
  C   -1.83566823482696      0.28820864509917      0.10277837384743
  C   -1.27737923569766     -0.98414484619714      0.34755012953423
  N   -2.16464783292613     -1.90210549247918      0.85839589265546
  H   1.82266925494137     -2.79684825100486     -1.14314851984677
  H   2.91341495621348     -1.53648411904452     -1.42888761942865
  H   4.08133411823788     -1.30773181192614      0.28812664352199
  H   5.13295831513808      0.02108521557082      0.34991151099109
  H   2.33832426015711      3.54844617350280      0.28857255796838
  H   -0.00274638896933      3.24376229160104     -0.00780256299495
  H   -2.34529295872521      3.54342849643911     -0.29664893952187
  H   -5.13502670810723      0.01217163848560     -0.33047206737431
  H   -4.08099396513443     -1.31461917007066     -0.27150179302679
  H   -2.90470009969692     -1.54134660231494      1.43633187997457
  H   -1.81185390612351     -2.79889195097739      1.14661374535312
