31
Coordinates from ORCA-job ./opt_b97-3c_parallel
  N   2.23838632684889      4.45350257586441     -0.25934254455699
  C   1.65195727997853      3.45295343919965     -0.17787764300829
  C   0.94909880522920      2.21887224847037     -0.07948897909416
  C   -0.43340378388920      2.33937582251397      0.03756896861123
  C   -1.48809539808387      1.44480467288936      0.12402089387874
  C   -2.78625543202753      1.98231715679662      0.34295666088589
  N   -3.74826366122142      1.07107082285036      0.37324871083875
  C   -3.12027758120706     -0.11233356583866      0.13105180606279
  N   -3.89460599778974     -1.23944419431285      0.10791457169268
  C   -1.71328443250570      0.02395653560321     -0.05762226527473
  C   -0.86373946041857     -1.06290408501935     -0.38479311189440
  N   -1.51539920627873     -2.18391434323884     -0.91449853613907
  C   0.51363107843994     -1.21514689955934     -0.16424701827506
  C   1.15584359164930     -2.49194082506454     -0.08703593024592
  N   0.61009496871604     -3.73272096240054     -0.19211505732549
  N   2.48004490789760     -2.42173483913473      0.16675188459675
  C   2.76295660354657     -1.12078071296851      0.25307488179144
  N   4.03596150642666     -0.73246403911485      0.46050297913536
  C   1.60366050415491     -0.26901500297321      0.07162005740364
  C   1.78525006791693      1.08865583873465      0.00478060167498
  H   -0.76180093383751      3.37041079860228      0.10622821017749
  H   -3.00721059894552      3.03310165437146      0.47239686477891
  H   -3.46689294398893     -2.09909656859832      0.41331582206992
  H   -4.81463068670800     -1.07912814344234      0.48776624181518
  H   -0.93889174356082     -2.71689701105203     -1.54741962889122
  H   -2.39744444851969     -1.96468859653878     -1.35285493230757
  H   1.21641027628789     -4.46448548486316      0.14230463881967
  H   -0.36278122459131     -3.83367974896168      0.04926168785777
  H   4.23338371933819      0.17312572727826      0.84238298633591
  H   4.69067527794407     -1.46094670320776      0.68396660788837
  H   2.82761918750190      1.38263982181658      0.03869996510015
