28
Coordinates from ORCA-job ./opt_b97-3c_parallel
  N   2.89449809872368      3.46849909017658     -0.09906986650029
  C   2.15716801698902      2.57029372054087     -0.03018097701157
  C   1.29951492245669      1.44207465628938      0.03889162355555
  C   -0.03229366052119      1.79615677571689      0.28501361951210
  C   -1.26288005033564      1.18371024868857      0.21420240078782
  C   -2.44214156152083      1.95447244308756      0.35617633277482
  N   -3.56457197502537      1.27066380971780      0.13937806429801
  C   -3.17030839320878      0.00321713831688     -0.14615462637104
  N   -4.10696799616016     -0.91704103550021     -0.45043559709090
  C   -1.74664728934324     -0.15222648884030     -0.11189065683216
  C   -1.11793448734231     -1.36991238481480     -0.18565796070502
  C   0.19908683780833     -1.79499157531866     -0.03447694373656
  C   0.43320904690927     -3.18992546297889      0.11976958319145
  C   1.77446127352568     -3.41439564383570      0.37309075352208
  C   2.42521932262600     -2.17789717553843      0.32515200264755
  C   1.49671467583478     -1.14483346777244      0.06547166516281
  C   1.95985009371667      0.18614105359069     -0.16208525337216
  N   3.25238421926574      0.28113310214099     -0.54353647850664
  H   -0.12558388219730      2.85490221869342      0.50365538963193
  H   -2.47558433825427      3.00970697766951      0.59104660928568
  H   -3.87698083958223     -1.89293112234124     -0.46216746502180
  H   -5.05612218776389     -0.68085178585313     -0.21929513163523
  H   -1.79142104319699     -2.21290268214824     -0.32023096306930
  H   -0.34703749479909     -3.93584356239172      0.08884767197384
  H   2.23914589358597     -4.36309467275722      0.58915100213555
  H   3.47217273897865     -2.03541056794722      0.54582543184499
  H   3.71596399292249      1.17031716807376     -0.61630560790608
  H   3.74923350990824     -0.53457770506503     -0.84169868056570
