28
Coordinates from ORCA-job ./opt_b97-3c_parallel
  N   5.60888693739613      0.94485041335065     -0.28083847056688
  C   4.51419048499077      0.57655761568621     -0.14956196520134
  C   3.18903680941824      0.14113518970774      0.01413233732902
  C   2.73908658197635     -1.17787319498429      0.04412533677018
  C   1.33025185337513     -1.19408816024607      0.16297485962077
  C   0.69964802217919     -2.44289474196960      0.20712699549769
  C   -0.59897938979725     -2.89725036938581      0.14553966790612
  C   -1.81059623024009     -2.24792434240161     -0.06953543817535
  C   -2.22122933301007     -0.93240867600129     -0.15977166332290
  C   -3.59494721910605     -0.67441229186913     -0.41265389910867
  N   -3.90672357197425      0.61429829666423     -0.39958503932149
  C   -2.75371741451054      1.26806053340212     -0.10159202836056
  N   -2.78996187160865      2.63979170451108     -0.03603316911418
  C   -1.64919701261588      0.39218735580625      0.08321106985274
  C   -0.36676792975072      0.82745469491097      0.47015126023384
  N   -0.29385927166545      2.07593681140432      1.01754436851530
  C   0.90337310541384      0.19622163824550      0.26554973314513
  C   2.06298816894821      0.97709231579538      0.17091681759160
  H   3.35947751322053     -2.05627981089181     -0.02952123154639
  H   1.42177509194912     -3.25215958023203      0.24808646567504
  H   -0.68618204560243     -3.97610957193038      0.18152425146904
  H   -2.63489025383226     -2.93894311754366     -0.21850975618777
  H   -4.34525457319735     -1.43023347289135     -0.59800417989801
  H   -1.98084495358986      3.12360134368144     -0.39465130920073
  H   -3.65582899718205      3.00481520807981     -0.40346113055425
  H   -1.13697096789389      2.48054097676239      1.39108063186780
  H   0.54210972898369      2.30154315464172      1.52357758803428
  H   2.11122017552560      2.05304016709741      0.12904719585002
