29
Coordinates from ORCA-job ./opt_b97-3c_parallel
  N   5.09663981396103     -1.74764454241543      1.03077517580665
  C   4.32356939934950     -0.91930394587724      0.76998278499131
  C   3.38596928438419      0.07009151627625      0.45558345019340
  C   3.61074328886706      1.43358347696270      0.30285342284232
  C   2.43156121373090      2.06644646771887     -0.10961283423891
  C   1.39323129592873      1.13627713294419     -0.19699427806457
  C   0.05064537525732      1.51226311988200     -0.34266561124322
  C   -0.14228221565100      2.90539496854640     -0.60195481175695
  N   -0.20677273251117      4.03836652557244     -0.83979524798439
  C   -1.15449097990871      0.80996580102079     -0.15708349453923
  N   -2.28051320846897      1.55057307308034     -0.09005849034020
  C   -3.30320157430534      0.72015155285467      0.17987995218943
  N   -4.54865556604332      1.17805512524825      0.31959367220302
  C   -2.87088823350366     -0.62659399498537      0.28178424295267
  C   -3.68892337493335     -1.73435460776244      0.49189255679557
  N   -4.39409277605142     -2.64507124412506      0.66601818339553
  C   -1.47400139612079     -0.62172809846118      0.03994632577562
  C   -0.78382779001555     -1.80241190318315     -0.13785814928921
  C   0.56055485279337     -2.10810576795483     -0.39544149031361
  N   0.83132745846900     -3.33411088963208     -0.92227751274418
  N   1.66190505039042     -1.43648230064671     -0.07202487457358
  C   2.01979289550287     -0.20757358813993      0.09327890685582
  H   4.55593120285799      1.92516121962334      0.46889422849044
  H   2.32386517785403      3.12533349286362     -0.26964163754977
  H   -4.72236011020142      2.16215660776562      0.22454417107909
  H   -5.30918751727631      0.56666928739632      0.55138777918608
  H   -1.41711974343251     -2.68157877914036     -0.07832850239208
  H   1.76915165494688     -3.68232189677006     -0.82102129991540
  H   0.09624566903903     -4.00204842936311     -1.06620160220980
