30
Coordinates from ORCA-job ./opt_b97-3c_parallel
  N   -3.65777057934250     -3.16417769214748     -0.03491134492035
  C   -2.70671728029476     -2.49877722999580     -0.01998382293346
  C   -1.51511882900639     -1.70631486316787     -0.00483055933440
  C   -0.37706281322879     -2.52034613754630     -0.01129495729878
  C   0.98823644595536     -2.32146494821749     -0.00022975945714
  C   1.85997385605751     -1.24209032838508      0.01416533379752
  C   3.24056726638382     -1.48033686502468      0.02038603676861
  C   3.92730374502715     -0.25793339308521      0.02060743424125
  N   5.27663934393656     -0.09249857747883      0.07452257834130
  C   2.97795802388387      0.77832243046787      0.01827897527667
  C   1.68481192223707      0.23669135644547      0.01311755603224
  C   0.54681054754086      1.06728914009898      0.00458995489447
  C   0.90535959262522      2.45599862195802     -0.01417354098742
  N   1.20482744939034      3.57667987177430     -0.03462292668870
  C   -0.85146492377359      0.87981566224277      0.01588454901741
  C   -1.70452216287084      1.99449935103331      0.02483970290831
  C   -3.04143884229015      1.57302187059403      0.03074186736528
  N   -4.12988775509032      2.38276987164796      0.08751547466416
  C   -3.05984654049139      0.17029615069000      0.02679468731724
  C   -1.74925318216408     -0.31898456627446      0.01580604339490
  H   -0.63371761211216     -3.57163258288284     -0.02488121386620
  H   1.52615746921026     -3.26378047710921     -0.00299138241472
  H   3.69133387923844     -2.46089646123015      0.02672474698599
  H   5.85848191593987     -0.86953241718277     -0.18258391202524
  H   5.65003850018573      0.80587633830690     -0.17525608849138
  H   3.21578918641367      1.82856666470531      0.02464242275844
  H   -1.38441697677163      3.02222183416836      0.03325134426367
  H   -4.01581887146229      3.35196826452091     -0.14900649399074
  H   -5.02562137842267      1.99403264139188     -0.14658727548163
  H   -3.94739592120425     -0.44000666791785      0.03367290586271
