30
Coordinates from ORCA-job ./opt_b97-3c_parallel
  N   -3.84407243501571     -3.69349006888329      0.00033912766271
  C   -3.00618403224865     -2.89152351545405      0.00030565108702
  C   -1.94515185199262     -1.92957745672560      0.00026936326183
  C   -0.69360427507352     -2.56258777223458      0.00011983608433
  C   0.63067392077254     -2.16580299767844      0.00000461677366
  C   1.33077492688604     -0.96698305398623     -0.00004678107877
  C   2.75421756325225     -0.97926858446382     -0.00022498623146
  C   3.58613311270064     -2.10205102285643     -0.00037000279123
  N   4.31822371529592     -3.00659140756061     -0.00049863144924
  C   3.23953498681705      0.34603697229180     -0.00028170201173
  N   4.51908178958258      0.72930089177607     -0.00038491011407
  C   2.11029286621141      1.20550399800934     -0.00013125346247
  C   2.22532138354743      2.59849764422191     -0.00014083475599
  N   2.39869888515827      3.74897259363600     -0.00015649862616
  C   0.92139874952046      0.43201099916085      0.00001420464102
  C   -0.31471204978089      1.07070089863302      0.00018495003003
  C   -1.64012014146746      0.69111386346426      0.00035252816525
  C   -2.64790024319332      1.70606959005012      0.00050024449337
  C   -2.41179586710843      3.08769450982887      0.00049181874134
  N   -2.21615758889122      4.23368787624207      0.00038265722796
  C   -3.91303226861638      1.10336776658243      0.00062787416531
  C   -3.74797428993338     -0.27237210203257      0.00055415542443
  C   -2.37466256633749     -0.59362901880238      0.00038653913491
  H   -0.78858938022695     -3.64017947185022      0.00008375783056
  H   1.29751708675462     -3.02118541306884     -0.00008215532284
  H   4.76600086929349      1.70256648954694     -0.00065755990716
  H   5.26083044340091      0.05282148232847     -0.00072392473043
  H   -0.20596129677683      2.15121012181858      0.00018823337744
  H   -4.85083825734268      1.63394473340986      0.00075437700357
  H   -4.54695688688806     -0.99411682140356      0.00061533967678
