31
Coordinates from ORCA-job ./opt_b97-3c_parallel
  N   -2.59918932979621      3.57024141389046      0.07263302230087
  C   -2.48993526910093      2.41006290010454      0.06037738767571
  C   -2.45195920709377      1.01647097860765      0.03933070200349
  C   -3.62324363866863      0.21176026084772      0.00197858964290
  N   -4.88153143167192      0.69702847961081      0.04221491963388
  C   -3.22900382955779     -1.12676816592141     -0.03294939112131
  C   -1.82654223120065     -1.21542353881346     -0.02043484562088
  C   -1.22857485108952     -2.46528118280481     -0.04023634936080
  C   0.06520347963453     -2.99467499607584     -0.03702648360823
  N   0.10840328856784     -4.38666062243152     -0.10174044466670
  C   1.33238759225368     -2.39559281551443     -0.04172937153420
  C   1.84788238629626     -1.11750484812449     -0.01903059814530
  N   3.21375951516960     -1.02895795256356     -0.02958637698825
  C   3.52766057818792      0.26572575956225      0.00300718338709
  N   4.80086299898301      0.69470843926595      0.03633350428955
  C   2.36894117977391      1.09672005686774      0.03647646778592
  C   2.39290465159466      2.48988491920593      0.05955085472518
  N   2.48251514500031      3.65144209112991      0.07384031371750
  C   1.25487147296674      0.23101682252967      0.02065969550927
  C   -0.04371134997218      0.72525539559526      0.04027683894999
  C   -1.30760635542155      0.17703374978615      0.02319660198026
  H   -5.02581645170311      1.68197860790425     -0.09861554774693
  H   -5.65003189424041      0.09908913101948     -0.19796746963522
  H   -3.89591099753895     -1.97443515347429     -0.05680014171516
  H   -1.98050846337981     -3.24877328887546     -0.07242086530610
  H   -0.70666001631927     -4.87399960436241      0.22763501699329
  H   0.96218694606730     -4.81781372208390      0.20712937731136
  H   2.14576292843036     -3.11232027340231     -0.07066636701696
  H   5.52706529701173      0.02837268293684     -0.15466091319342
  H   5.00330280641989      1.66549011063128     -0.11939625064866
  H   -0.06620362430297      1.81079856005201      0.07254257510183
