28
Coordinates from ORCA-job ./opt_b97-3c_parallel
  N   -3.93539632932991      1.84325323902819     -0.00261523917488
  C   -3.07779867755179      1.05647225983117     -0.05085971468216
  C   -2.22573208642895     -0.05076788954492     -0.04220090879572
  C   -2.76931944123281     -1.33614259065760      0.27394937459898
  N   -4.08203214165835     -1.57131415533154      0.43741361822883
  C   -1.72206719212019     -2.25029390044460      0.34830933805539
  C   -0.50540264412270     -1.59763297120867      0.09096636514889
  C   0.63300070024973     -2.35048927504760     -0.12540800304521
  C   1.98331762614557     -2.05020762913294     -0.37947260020022
  N   2.71609954953457     -3.00550188288203     -1.02356621519303
  N   2.71954626777086     -1.03953736813012      0.05440735730595
  C   2.50828380034119      0.20762101488450      0.34104823195149
  N   3.56250704849068      0.92218160919461      0.84155867975761
  C   3.20888599054542      2.20327799196971      0.76488766290888
  C   1.93139348767942      2.41071995229059      0.21115107202700
  C   1.38260090797856      1.15163231896131     -0.00383746319140
  C   0.02395698804854      0.94664062608600     -0.32758752961986
  C   -0.60356730752132      2.13180172188304     -0.81714161492279
  N   -1.02571094865917      3.10487902914680     -1.28765387511553
  C   -0.81708879153072     -0.15426938267824     -0.12717899849363
  H   -4.71998047177257     -0.79390323010610      0.47068069417602
  H   -4.39275859032922     -2.43049073389524      0.85045782798598
  H   -1.82459088771192     -3.31225772720253      0.50514232587727
  H   0.44281889712786     -3.41868366095116     -0.09578562968229
  H   2.30504211973821     -3.89257033423860     -1.24918440679893
  H   3.71427738980784     -2.96820862812007     -0.90919555216316
  H   3.88076919021866      2.97596835228165      1.11257965199259
  H   1.43889979355858      3.35746738167538      0.06872569816087
