28
Coordinates from ORCA-job ./opt_b97-3c_parallel
  N   -3.24947718061431     -3.09224032879071      0.30017511510827
  C   -2.38514274727041     -2.32358608492946      0.17455855525587
  C   -1.37329807571093     -1.33761716971699      0.04031941159717
  C   -0.12451005824073     -1.86132604344638     -0.30264834156591
  C   1.19365718917593     -1.43820991380720     -0.30990566657673
  C   2.19537258477406     -2.40111820810997     -0.64175088311725
  C   3.44507709842147     -1.87742173304725     -0.38550430863107
  C   3.27298827614737     -0.58792928352748      0.14161820516170
  C   1.90687242036844     -0.26809588746165      0.18745262709753
  C   1.43721988583158      1.01092492341131      0.56829761365013
  N   2.26452691948926      1.79485757425962      1.28560937038750
  C   0.23891806206369      1.64245882868781      0.12843244954155
  C   0.22842627481265      3.01188915117190     -0.20237789708936
  N   -0.96870585581705      3.42675464900695     -0.65635328329868
  C   -1.78223380906254      2.36758144972671     -0.55375691887460
  C   -1.11446626896704      1.20401862730297     -0.10459264204288
  C   -1.82839958836444      0.00799900297144      0.17308995862879
  N   -3.12904999884039      0.16728946161273      0.48840729640320
  H   -0.20262885272577     -2.90955588557236     -0.56989881066836
  H   1.97674534256755     -3.39420480342787     -1.00328083349307
  H   4.39238051584103     -2.36363342519201     -0.55582417893586
  H   4.08953475656269      0.07825598250117      0.37757336256912
  H   1.95008239528521      2.68914716073170      1.61005215796897
  H   3.15025439442682      1.46127644762371      1.61354363196339
  H   1.08598176634716      3.66856422479927     -0.23692667240174
  H   -2.80758943669306      2.43080131021128     -0.88954908805076
  H   -3.76453806512276     -0.61163392556242      0.52454948743943
  H   -3.49125730728586      1.08461928267311      0.66352154347393
