29
Coordinates from ORCA-job ./opt_b97-3c_parallel
  N   -1.24382688353166      4.44503818278247     -0.03702478552922
  C   -1.06403688988094      3.29626319470028     -0.01794984327501
  C   -0.81829063824930      1.89301214669616      0.00151238421302
  C   -1.97414626399016      1.11445462882304     -0.02247386379163
  C   -2.25704826908302     -0.24329056538165     -0.00664691117502
  C   -3.62078703956723     -0.66026469763496     -0.01731313656616
  C   -3.69224128666451     -2.04382895400526      0.01240308834813
  C   -2.38021103400870     -2.52948011974236      0.03923291816002
  C   -1.46227047255658     -1.45682360462375      0.02770487044314
  C   -0.08970385208307     -1.73129093539580      0.03486917981026
  C   1.06471933135173     -0.99508063362923      0.02542115277882
  C   2.34822108456431     -1.63940590364377      0.02576558045773
  N   2.57415482537626     -2.97886664211771      0.04542240917513
  C   3.36462573295089     -0.68219522217658      0.06304601705682
  C   2.78243091751817      0.58080956954470      0.06964584802350
  N   3.48409162395058      1.73927751458103      0.14260592528185
  C   1.33985293247416      0.45536519530652      0.04712652677277
  C   0.56435650735822      1.57888764135282      0.04327902535600
  H   -2.87332493090645      1.72008215338683     -0.05284022620109
  H   -4.45719920158146      0.02269065330296     -0.04107862875664
  H   -4.59148398974666     -2.63873090355537      0.01397829795217
  H   -2.09286978079033     -3.57132399660378      0.06414470579952
  H   0.07908704924471     -2.80426395948313      0.06492359094718
  H   3.49921417009546     -3.29094134261485     -0.18985354300300
  H   1.84683615754210     -3.59094626511563     -0.27757376590855
  H   4.42398157058862     -0.88871738488097      0.08083281970642
  H   3.04000466887578      2.59814983666731     -0.12756549719258
  H   4.46372989616336      1.70125646054286     -0.07384824281078
  H   1.14163276768567      2.49507889331788      0.08554850702721
