29
Coordinates from ORCA-job ./opt_b97-3c_parallel
  N   -5.61781324654765      0.18569508470826      0.21743535399148
  C   -4.46923316784769     -0.00412246041674      0.21024192226191
  C   -3.07847936395836     -0.15440167948016      0.17788655509420
  C   -2.33071077374222     -1.32930131714952      0.34255249018202
  C   -0.96761584957895     -1.05435267054643      0.18609516272589
  C   -0.04801112251788     -2.09900087162919      0.20913876917412
  C   1.30057093000189     -2.26552584367768     -0.01221411331888
  C   2.42036986493409     -1.42843185988563     -0.18901484984181
  N   3.57132132258401     -2.12092118221762     -0.46377616212172
  C   2.57592320239581     -0.02489163729306     -0.03030816185276
  C   3.85343159760170      0.55690763638560      0.10729219553514
  C   3.74585840168787      1.94989505193504      0.17328724517838
  C   2.40563482029218      2.27334962266239      0.06187449777363
  C   1.62909253009454      1.08527574404533     -0.03773761096359
  C   0.24582599553687      1.22614121842244     -0.10810531209161
  C   -0.84472670089407      0.38717840053172     -0.05823976472480
  C   -2.17650702453597      0.90582183856908     -0.08491500806461
  N   -2.55644997578653      2.19998149333578     -0.25739096331099
  H   -2.75030164555327     -2.30584490611045      0.52416707928983
  H   -0.54250452398988     -3.05134978515216      0.37607651913851
  H   1.57282735732135     -3.31562962836741     -0.04760325338828
  H   4.31872110370431     -1.63865443442936     -0.92525550882561
  H   3.49237675468496     -3.09474270654125     -0.69193046917412
  H   4.78013925085713      0.01760784282649      0.22847265543487
  H   4.56478828148811      2.63930752089818      0.30449874754421
  H   1.98283009078464      3.26675576873032      0.07784386547107
  H   -0.02778702357850      2.27686869038751     -0.14899688889673
  H   -3.54047842389240      2.36277629918804     -0.39272044515188
  H   -1.96978473724563      2.79519393067156     -0.81391661586943
