32
Coordinates from ORCA-job ./opt_b97-3c_parallel
  N   -3.80310300850120     -3.20097254004461     -0.61250855743056
  C   -2.90775908172212     -2.48727985311190     -0.42412667698728
  C   -1.74360641936784     -1.67785482469367     -0.25970947093265
  C   -0.58016293021855     -2.43835060360411     -0.37208266732464
  C   0.77673148322487     -2.21109103844924     -0.23173567552942
  C   1.61288568490736     -1.11983172063985     -0.06812453660991
  C   2.99675187037104     -1.34377878310808      0.15146970680826
  C   3.63867385924522     -2.57449862884198      0.30297790986892
  N   4.21835350851999     -3.57499711428307      0.43559007058474
  C   3.66672959243297     -0.10556782389629      0.19374844958249
  N   4.96119442427998      0.09223432143728      0.42220014740283
  C   2.70480978969679      0.92183954346902     -0.03719290445090
  C   3.12471092163407      2.25395035080118      0.05853219946678
  N   3.66902064354566      3.27083224206013      0.21062352490753
  C   1.42716147322281      0.34015401083637     -0.19602833182622
  C   0.27460238966503      1.10687969714483     -0.45613950257137
  C   0.52561655407943      2.43318934693147     -0.92448552647174
  N   0.75446614506415      3.45727938783570     -1.41908271008902
  C   -1.10495458221450      0.88362238750837     -0.24046925360064
  N   -1.85020317592918      2.00794214849439     -0.19146290949022
  C   -3.10191035277076      1.65629703053068      0.12333244024536
  N   -4.06269194960008      2.55450468616473      0.31497911159755
  C   -3.23950639829291      0.23736163088570      0.22972021441695
  C   -4.45793192369568     -0.34576897765928      0.58648288790090
  N   -5.52646795703546     -0.65521154004796      0.92776517943193
  C   -1.96895693950803     -0.30439084311193     -0.02944775479206
  H   -0.79681386753449     -3.48356340708347     -0.54848549550263
  H   1.33165392704494     -3.14258234830120     -0.23576330969064
  H   5.57941190677384     -0.67950688561244      0.59982173482256
  H   5.34087548763664      1.02370192017389      0.44317927772582
  H   -4.99249074251919      2.27498000443936      0.57283617301528
  H   -3.85414257953505      3.53136754577599      0.20834705312174
