29
Coordinates from ORCA-job ./opt_b97-3c_parallel
  N   3.24992741824453     -3.76321809976192      0.01301488217521
  C   2.51258183426491     -2.86772605784469      0.00931354420557
  C   1.51842996188329     -1.84115624007565      0.00513212235164
  C   0.22025015878018     -2.34096909593723      0.00767336314841
  C   -1.06008309068423     -1.80952775494318      0.00577326782027
  C   -1.64712670361832     -0.55694842352189      0.00037679122415
  C   -3.05949060874151     -0.46060435401326      0.00038157718039
  C   -3.98182999015749     -1.50765393222590      0.00551013817023
  N   -4.79862777081732     -2.33774586775123      0.00962072287200
  C   -3.43368075457416      0.90912038155448     -0.00581542464604
  N   -4.69226923933321      1.35997309991421     -0.00752346249074
  C   -2.26217611059396      1.68138283023066     -0.00971372443908
  C   -1.14377914764900      0.84724727342020     -0.00617907686341
  C   0.15961903233184      1.38397095775238     -0.00886964974339
  C   0.18375738819538      2.81524499949617     -0.01542682423654
  N   0.09931492854121      3.97209388612487     -0.02071228752192
  C   1.45504466674402      0.83371089199133     -0.00648138990491
  N   2.48203057761220      1.70705622510343     -0.01043361414634
  C   3.58709450151777      0.93964914743738     -0.00724598699222
  N   4.81652344101219      1.45375821682331     -0.00973998910305
  N   3.37504144578673     -0.39977697839844     -0.00141066230774
  C   2.04374730057812     -0.53145801298989     -0.00063502722656
  H   0.20560284301614     -3.42299088737968      0.01239581208568
  H   -1.80690653357034     -2.59567832868018      0.00950963626353
  H   -4.89283283533231      2.34227765986144     -0.01195651903981
  H   -5.46878847489190      0.72267472545936     -0.00429150549664
  H   -2.23462055547790      2.75708704472611     -0.01464222753853
  H   5.61296716414607      0.84458785609806     -0.00657588769109
  H   4.94398426798706      2.44835046062973     -0.01347009500909
