30
Coordinates from ORCA-job ./opt_b97-3c_parallel
  N   -2.93123647168090     -2.64180859219749     -0.97846425666559
  C   -2.07560784697948     -1.96700309387674     -0.57243935716415
  C   -0.92510823361839     -1.23453566631112     -0.17119385191117
  C   0.21021598642973     -2.08216933270040      0.05758328633446
  N   -0.05654438394774     -3.43402849971903      0.10273227069739
  C   1.54690201095922     -1.77542593943436      0.31387169839557
  C   2.37935488979807     -0.67709841825063      0.19330878549213
  C   3.75949547864290     -0.78958099012705      0.33557469804291
  C   4.30035599542791      0.46864524701117      0.01168133952204
  N   5.59764652560192      0.82167751386880      0.00328707529690
  N   3.35828866405270      1.38950777220293     -0.28489282478544
  C   2.16107401852159      0.77362832352261     -0.17203551368508
  N   1.09654826449212      1.51795817642694     -0.29918790746306
  C   -0.20141790831156      1.33957853037053     -0.15205942775760
  C   -1.00484895546768      2.48138194962628     -0.15527150505660
  C   -2.34023456317728      2.12210837481261      0.03229060109351
  N   -3.39535076373202      2.93543060257822      0.14919582644588
  C   -2.42796134399769      0.69585487326024      0.09517753576794
  C   -3.65194599976475      0.09666025146462      0.40121716655434
  N   -4.72750844348154     -0.23897259367112      0.69804941731490
  C   -1.13503065538770      0.14338187062794     -0.02449734879355
  H   0.70167997754308     -4.05991375206420     -0.09700792538296
  H   -0.95711727127552     -3.76323891055190     -0.19963750185689
  H   2.10702830297716     -2.66275750117742      0.59348542808440
  H   4.30346645827450     -1.68588116403375      0.59069767342068
  H   6.31877123694746      0.12788612964477      0.05959385073810
  H   5.83566190993804      1.71711313718047     -0.38473146729037
  H   -0.60793343262916      3.47674566573109     -0.25894705295542
  H   -4.30521655981027      2.55813489310876      0.35335378282717
  H   -3.27864766277245      3.92992369098028      0.19584740150842
