28
Coordinates from ORCA-job ./opt_b97-3c_parallel
  N   -0.68636824563587      4.54270911368761     -0.42196668664730
  C   -0.43530753030365      3.41620947584188     -0.28707463049474
  C   -0.13827989678461      2.03216952098269     -0.12545918814575
  C   1.22056770130984      1.74248932219091      0.02030702338888
  C   1.97570855160741      0.59310581442010      0.18235163256494
  C   3.35431853992821      0.74810729542343      0.53176741906537
  C   3.95079906207044     -0.48960836747614      0.62578640058882
  C   2.99038105178983     -1.45605348685233      0.27663927656299
  C   1.76146838586887     -0.83723861051835      0.00167177889694
  C   0.64262339894900     -1.59627192695452     -0.45335373802221
  N   0.95237835218490     -2.77527298071094     -1.05251226939358
  C   -0.72949721976148     -1.34199034924835     -0.23998490008390
  C   -1.68876222763708     -2.36148034457303     -0.24434308389139
  N   -2.93001730351236     -1.95604526206327      0.09483687846627
  C   -2.83561859825829     -0.63648818932485      0.29393513678646
  N   -3.93924788528248      0.09080623767514      0.59501204336230
  C   -1.49008481560617     -0.13741506579523      0.09695746431429
  C   -1.27322502959357      1.21374293088248      0.01147676281793
  H   1.82631029390335      2.64031721214419      0.07312803335893
  H   3.82116835450540      1.70463961676140      0.70965062276009
  H   4.96825788507484     -0.69339299685545      0.91918019649726
  H   3.16016078290574     -2.52187361133514      0.30276177749228
  H   1.88621179662268     -2.90834996619090     -1.38895408873946
  H   0.23912435049776     -3.28740984579243     -1.53389336854375
  H   -1.51255747843408     -3.41835760712435     -0.38325310085752
  H   -3.83949238670739      0.91948796766272      1.15232211662289
  H   -4.76018865373806     -0.45517005560899      0.79413065562714
  H   -2.18398692186369      1.80045844025191      0.06358042424655
