26
Coordinates from ORCA-job ./opt_b97-3c_parallel
  N   4.70187049397113      1.58706103489803     -0.29110791936387
  C   3.89850606215753      0.75278244918678     -0.19864701493803
  C   2.98137904658708     -0.30079275764109     -0.08885795086061
  C   3.32906247936102     -1.67599078121982      0.01461148141624
  C   2.18018743694904     -2.41025546282686      0.12902655552390
  C   1.03864315530634     -1.54394571095587      0.08502604496871
  C   -0.20753211775565     -2.09610856853528      0.12861558524741
  C   -1.55627027512000     -1.66649209778812      0.03095721319906
  N   -2.44269486190799     -2.72087744515895      0.05352167527251
  C   -2.09183716101411     -0.36377848813854     -0.02849522804035
  C   -3.50914250199103     -0.36218386957226     -0.16141613429577
  N   -4.66323943983659     -0.42364103608342     -0.28130903798867
  C   -1.54123618853628      0.94143042681364      0.05206048657723
  C   -2.36151446626344      2.06118521604228      0.10030513940341
  C   -1.52660478826512      3.19646973527861      0.10443051370970
  N   -0.23908667725670      2.89854915623087      0.03919765622295
  C   -0.14584146870828      1.52519879706170      0.01252063163081
  N   1.05942446722359      1.04866553342520     -0.05563805806896
  C   1.57719364958453     -0.16186838798449     -0.04263218093210
  H   4.33801268357384     -2.05426950800250      0.00449544114261
  H   2.11810217514542     -3.48351126810884      0.21844293396739
  H   -0.15538524734988     -3.17433800235438      0.24511029764545
  H   -2.10783362007794     -3.62010239350371     -0.23985410623492
  H   -3.41166467933229     -2.55052601367123     -0.15551068591505
  H   -3.43853051922847      2.06559770749571      0.13263132080346
  H   -1.85206372141565      4.22601425251244      0.15608153310758
