31
Coordinates from ORCA-job ./opt_b97-3c_parallel
  N   4.06302381551791     -2.74719852492653     -0.60502157054124
  C   3.05697120443244     -2.20413087866766     -0.40531717703364
  C   1.76456455652901     -1.62432305324671     -0.22863704908905
  C   0.76488391377356     -2.59923758272874     -0.30821318277592
  C   -0.60568004656527     -2.63326053710842     -0.16213805503411
  C   -1.64399952264767     -1.71912401590664     -0.01809431198526
  C   -2.93991633565803     -2.20015261888431      0.18720480336894
  C   -3.83827398502723     -1.13164760526451      0.20709988376024
  N   -5.15927454342333     -1.17185112684461      0.40614722437727
  C   -3.10257467503314      0.07432991164410     -0.03024917783199
  C   -3.78917900503857      1.29094251291952      0.04607011636948
  N   -4.54296327060974      2.16789275632066      0.17911162680477
  C   -1.73308428927206     -0.23992023813208     -0.16423737288302
  C   -0.74802981878435      0.72933351777498     -0.40719204783744
  C   -1.24335502923421      1.99412265671172     -0.85491081394921
  N   -1.66250641682958      2.96693064199563     -1.32756022741738
  C   0.65413832032170      0.76800821349809     -0.19966838451722
  N   1.17233087245606      2.01233286041981     -0.14803798158342
  C   2.47638866475328      1.90342739350636      0.13966704646271
  N   3.24797543584007      2.97289420941094      0.32370050564960
  C   2.88325733406012      0.54166504730037      0.22848061412210
  C   4.19399568560077      0.19929643226967      0.56867779556536
  N   5.30650245216868      0.09430327129871      0.89441168920440
  C   1.73010494939046     -0.23398166583740     -0.01262622177958
  H   1.17963698599939     -3.58621692246346     -0.46510498772839
  H   -0.97538660284647     -3.65262113570891     -0.15130930933105
  H   -3.19660006338523     -3.24164012976065      0.29597341943734
  H   -5.69267216283353     -0.31940830515359      0.44203475252876
  H   -5.62437995258967     -2.02649125938033      0.64695421088474
  H   2.84888875234161      3.88994720722987      0.23511450549988
  H   4.21913803379299      2.87790907161415      0.56060165008229
