28
Coordinates from ORCA-job ./opt_b97-3c_parallel
  N   5.62590352918512     -0.02253286432351      0.06127157425423
  C   4.47180763908455     -0.17217010543811      0.08493059138922
  C   3.07610648103829     -0.27056084268402      0.09370006213325
  C   2.28843261734940     -1.42019477169183      0.23833832853726
  C   0.93033104401564     -1.09247164441099      0.14432631736086
  C   -0.01815395800961     -2.11213974758296      0.17811343413030
  C   -1.38030236009380     -2.24714355964896      0.01706189237647
  C   -2.47926092559947     -1.37614914546424     -0.10057180901982
  N   -3.66154767554539     -2.01227002104466     -0.34077743562536
  C   -2.56543355777986      0.03307250624520      0.07761136951167
  C   -3.79092034362116      0.69397030121139      0.27185995424531
  N   -3.67193933929884      2.03800081969812      0.36704237931455
  C   -2.36844621077387      2.28199557780650      0.22287524625927
  C   -1.58946971761405      1.10605162005647      0.06703356772730
  C   -0.20717894944636      1.23306359515478     -0.03283053509902
  C   0.85466442360558      0.36124919810881     -0.04091307763205
  C   2.20635798977368      0.83256479936230     -0.09320265812455
  N   2.62943452040178      2.11014875077245     -0.23276625666177
  H   2.67682470712727     -2.41750108058051      0.37038504175880
  H   0.45958390899338     -3.07992277666465      0.29742030707947
  H   -1.67942434946432     -3.28954222399402     -0.02665322553825
  H   -4.43609381857121     -1.49519388937906     -0.70930909280067
  H   -3.65483760487418     -2.99410195559071     -0.54516613808139
  H   -4.76175559042206      0.24108088425606      0.41439373429667
  H   -1.97889920342890      3.29116285545451      0.24811277534769
  H   0.08356338617768      2.28051201579166     -0.04963001759591
  H   3.61282029088763      2.25789321506697     -0.38497519065648
  H   2.03150406440309      2.77800299071297     -0.68359564068697
