33
Coordinates from ORCA-job ./opt_b97-3c_parallel
  N   5.37473555782704      1.14382097444156      1.63986548496895
  C   4.59683818554667      0.39479451035202      1.20655989683358
  C   3.62561774269067     -0.46128058855019      0.67857840548415
  C   3.78766601053899     -1.79021667963769      0.32267397086303
  C   2.60300422353320     -2.26023596402717     -0.26284782186649
  C   1.63774547825096     -1.24739109554133     -0.26761145639167
  C   0.26961028129876     -1.52334808246550     -0.46789358927583
  C   0.01576873514812     -2.83537599178049     -0.96413881670797
  N   -0.13191408498007     -3.87349469449573     -1.46115002561486
  C   -0.86823169391672     -0.77543433083604     -0.12948346921170
  C   -2.10698653318362     -1.39145345463642      0.21404168140792
  C   -2.40278326431797     -2.72874947294633      0.49306216966553
  N   -2.78206702798362     -3.78894892400210      0.78710210338319
  C   -3.05970519823666     -0.38412832788623      0.46174311417857
  N   -4.30349784940187     -0.55939175565365      0.89927294978178
  C   -2.44273988997496      0.87977539552556      0.21052056195482
  C   -3.13498891250859      2.07819001529210      0.41026910008775
  N   -3.79684214445661      3.00487481402900      0.64806053895095
  C   -1.10081532134365      0.67649177637599     -0.14336292434785
  C   -0.32117244863614      1.73823983581377     -0.69201661895949
  C   -1.05409520000518      2.73187547867561     -1.38759970033761
  N   -1.54670291271631      3.56320627323301     -2.03442204411767
  C   1.04494327343293      2.03578478809052     -0.56816527869282
  N   1.49982481610964      3.21960393259029     -1.04626192226042
  C   2.04623448955830      1.29215036263169      0.12747776688247
  C   2.30333809277494     -0.03304865941204      0.24937473627518
  H   4.68493881752783     -2.36790871746167      0.47393143026545
  H   2.43054012643559     -3.27620165531127     -0.57507541933448
  H   -4.65788899627351     -1.48286843660921      1.08015647729773
  H   -4.90200670432254      0.22710289176809      1.08189848727701
  H   0.89118504444823      3.84965452203544     -1.54033494420008
  H   2.48465068848759      3.39906543875861     -1.09729091545084
  H   2.84224101949281      1.92848394294232      0.50109783224453
