26
Coordinates from ORCA-job ./opt_b97-3c_parallel
  N   3.98712228810999     -2.84322810598485     -0.00410829775596
  C   3.09915921579634     -2.09665155424021     -0.00378998685118
  C   1.98850123799073     -1.19406215591705     -0.00277318111278
  C   0.76781380357702     -1.88222221624032     -0.00157456001791
  C   -0.57273349346867     -1.54145467600670     -0.00020449507751
  C   -1.31588207924346     -0.36886431033113      0.00055202768724
  C   -2.73018824432320     -0.38972700606618      0.00197002222106
  C   -3.57590302133605     -1.49914598568334      0.00265586486634
  N   -4.31647468921648     -2.39742642067393      0.00312248990544
  C   -3.15168010772756      0.96372655244437      0.00236407064097
  N   -4.40848912593237      1.41580302665582      0.00403966929486
  N   -2.10179218093920      1.81027215158538      0.00129036067194
  C   -0.97781405614422      1.06137174572115      0.00019065904742
  C   0.22753974360898      1.76069821072894     -0.00110613445873
  C   1.56575051355217      1.43120060608656     -0.00242065531357
  N   2.42503305190703      2.48875544395481     -0.00332173127241
  C   3.66639180225022      1.98201970555087     -0.00452959233472
  C   3.68441545884354      0.58795196565131     -0.00449187954547
  C   2.35034883307148      0.16338528183508     -0.00315773340418
  H   0.90992224857642     -2.95488301774656     -0.00172470338325
  H   -1.20669877805489     -2.42187681865962      0.00043322441697
  H   -5.19102792533178      0.78843688239564      0.00263150965391
  H   -4.57466162878569      2.40535027893970      0.00215719178802
  H   0.07651327689064      2.83262421165219     -0.00099921733079
  H   4.52330475609044      2.63985065107510     -0.00539643707067
  H   4.55381629443961     -0.04737802642696     -0.00532500486498
