30
Coordinates from ORCA-job ./opt_b97-3c_parallel
  N   -6.10285881425146     -0.93423842212579     -0.07237534994773
  C   -4.97183224502455     -0.66986370412650     -0.01309907252582
  C   -3.60580534246101     -0.35339044965465      0.05822883033584
  C   -3.05764580042084      0.87584446192089      0.46118750150128
  C   -1.65734480291183      0.80149725957165      0.37785192649305
  C   -0.86479462798075      1.90080289305456      0.75822046036969
  N   0.35326268030483      2.24734205828586      0.48978698785513
  C   1.39275352304762      1.70673094465832     -0.15232569589031
  N   2.15296220852919      2.68589919813771     -0.79157438862479
  C   1.90651406809886      0.41248649766491     -0.12170155308299
  C   3.29826590589871      0.10835351410130     -0.25233999439873
  N   4.31690567507469      0.99204693523173     -0.43694634597701
  C   3.49270117025877     -1.27716443239861     -0.12946919373529
  C   2.25709357656584     -1.88132978177388      0.03986756994388
  N   2.04250228777052     -3.22470533189064      0.12915623533200
  C   1.21718968581166     -0.87684054319842      0.03244827058784
  C   -0.09803791401219     -1.24034247347917     -0.06491449422324
  C   -1.31925630956685     -0.54170807566303     -0.04445639341691
  C   -2.53412779314191     -1.22312452317662     -0.22298312599782
  H   -3.62244548106362      1.74356312482007      0.76413639274664
  H   -1.39710861564372      2.64471891931538      1.35015981654651
  H   2.49193475617137      2.43527729123504     -1.70731160012332
  H   1.70670388789754      3.58956452912305     -0.76267603539744
  H   5.23101299622222      0.68536334054415     -0.15118305209845
  H   4.10957823335903      1.96077759626093     -0.24424362906663
  H   4.44864279749238     -1.77779494687420     -0.16090518742247
  H   2.85207490212089     -3.79946798897564      0.28193662999811
  H   1.23793211710641     -3.53016634830040      0.64710542020554
  H   -0.25272220029108     -2.30883294886592     -0.18380379395195
  H   -2.63199892796077     -2.26420399342227     -0.48966822793410
