33
Coordinates from ORCA-job ./opt_b97-3c_parallel
  N   -6.18021874242026     -0.74749083029991     -0.48903384622156
  C   -5.10174504254957     -0.38079289360736     -0.24715118616592
  C   -3.77434790712493     -0.01712627993729      0.00362855703193
  C   -3.28538047452153      1.15879993067791      0.58167536908019
  C   -1.88459971608650      1.14449709285169      0.53559148751364
  C   -1.19383757093728      2.32492151173793      0.85640170789202
  N   -0.08140389147897      2.82664122981058      0.39953792602282
  C   0.92413772553302      2.29664420557679     -0.28251442632485
  C   1.50908940695868      1.04936625014985     -0.25448549070448
  C   2.91292524690029      0.92609041009799     -0.53724155304751
  N   3.73405908506854      1.85668825876346     -1.06443912821073
  C   3.36490659928897     -0.29923096706448     -0.01506932062857
  C   4.68334966737919     -0.75155858685049     -0.00424335107204
  N   5.78404955173902     -1.13526767404242      0.00566349372140
  C   2.25056723140551     -0.98950899654630      0.52729958117072
  N   2.37275382192955     -2.24295294489039      1.06028549495360
  C   1.06871788216033     -0.23146980701748      0.32069634097418
  C   -0.21682803220845     -0.81199994915452      0.22911004690841
  N   -0.29477467146150     -2.16686630760659      0.38527473285956
  C   -1.46232052330882     -0.14431471680936      0.00608065786234
  C   -2.65923024590909     -0.82227573956650     -0.34750176815245
  N   -2.79325332365018     -2.09884036162063     -0.87222316927156
  H   -3.88738196667985      1.98749147665780      0.91759929187298
  H   -1.74380187770439      3.00809312326150      1.50133347163566
  H   1.46641455990837      3.05767177070708     -0.84027083313036
  H   4.68119582911379      1.59367053414654     -1.27243148974051
  H   3.35948038859074      2.60411912117261     -1.61764837386438
  H   3.31781234381515     -2.53319632534978      1.25846775223177
  H   1.72502156876004     -2.47609723215259      1.79565556926064
  H   -1.19973079701079     -2.60050639482038      0.29493236631525
  H   0.49507367348976     -2.73702772337706      0.13295268725865
  H   -3.74549628704459     -2.32488757292365     -1.12182234835254
  H   -2.16828528904466     -2.30213042017500     -1.63779573727815
