35
Coordinates from ORCA-job ./opt_b97-3c_parallel
  N   5.84349436253774     -0.23197516548371     -0.78388564698502
  C   4.72310816132539     -0.42291951023359     -0.52618647363708
  C   3.36770035992748     -0.56551869381728     -0.21850425703976
  C   2.61223236355167     -1.73113609485443     -0.12197053440592
  C   1.26933391778361     -1.39971093045140      0.14167909341763
  C   0.36267395117176     -2.42724041279929      0.40527430264434
  C   -0.99193405529133     -2.52048885746310      0.59206617266675
  C   -2.08466609142695     -1.68246560362808      0.27948224277742
  N   -3.29384695037537     -2.37742113530433      0.26508501920874
  C   -2.13741915212217     -0.32937851397335     -0.09485597588258
  C   -3.32457257514669      0.25807310689221     -0.65254243308698
  N   -4.44376992118363     -0.39436579278260     -1.12438243248374
  C   -3.22974411145469      1.64321505899308     -0.61714043643211
  C   -2.01354407395857      1.99471252100818     -0.03711385111968
  N   -1.63539357872855      3.30864012018532      0.11772281250677
  C   -1.25864867213773      0.80152684965922      0.25933027491537
  C   0.09544762408901      0.89637037239278      0.60744061602282
  N   0.47032333878800      2.09286076407903      1.23099311954492
  C   1.18974227681083      0.04399173742488      0.26938735511615
  C   2.49800978397125      0.53433122110262      0.04809082630174
  N   2.95751571309848      1.83651553683429      0.09327486160419
  H   2.99232186851675     -2.73480126040494     -0.22351138060183
  H   0.85829221296237     -3.38916130244035      0.49737528089020
  H   -1.30274178368942     -3.51884905269739      0.88254604014833
  H   -4.10413865812706     -1.87140024897785      0.58521847613091
  H   -3.24706891309130     -3.30850611673910      0.64014939774650
  H   -5.00370588030443      0.15972612724313     -1.75137097534605
  H   -4.28589350334089     -1.33033461677956     -1.46439500412736
  H   -3.96707181652202      2.33644514304380     -0.99365643034698
  H   -2.10781486704319      3.94433548806191     -0.50468062551744
  H   -0.63949891114436      3.46889570069715      0.16910672649670
  H   1.38724471954756      2.06956574732376      1.64956322383251
  H   -0.21779446000614      2.44045173192409      1.87894054330972
  H   3.86973676715955      1.95545366017363     -0.32140901584692
  H   2.30720650805355      2.53963645429123     -0.22044778982147
