30
Coordinates from ORCA-job ./opt_b97-3c_parallel
  N   4.73195906275661      2.57138497328098     -0.39290112909893
  C   3.74899533685363      1.97743170399792     -0.23118059248093
  C   2.51127327224976      1.28573809003615     -0.03078665396530
  C   1.48099752972444      2.17886900854661      0.30202897612593
  C   0.11063017402965      2.09085817555164      0.38409529181818
  C   -0.85648296799668      1.11038722452433      0.17845897185954
  C   -2.21870647175374      1.51243063457378      0.09007251941188
  C   -2.71982706238730      2.81346372966588      0.17506531388082
  N   -3.18653659004081      3.87781453028765      0.23817825783857
  C   -3.02798304960334      0.38284956335445     -0.14537839910996
  N   -4.34818140827160      0.37161766119096     -0.34379549834903
  C   -2.17899023332719     -0.75524473975467     -0.14499430752333
  C   -2.72211249734130     -2.00607121221908     -0.45775891450035
  N   -3.32956130271900     -2.94757190770586     -0.77165163023283
  C   -0.83332658225658     -0.34323403988680      0.06305433148575
  C   0.21780302091797     -1.27151043840533      0.25101854582413
  C   -0.23558983641774     -2.57379508073633      0.63965616076282
  N   -0.55929617149784     -3.61030744712080      1.04674719606035
  C   1.61103839062574     -1.20245434645218      0.11796688998010
  C   2.37226635732831     -2.39424213353044      0.09128471151425
  C   3.68716117330051     -2.10597610250072     -0.25501557412923
  C   3.82057866292539     -0.73030547014535     -0.41384490896391
  C   2.58288433804251     -0.10242954675194     -0.16727310033177
  H   1.84078402634419      3.18798837291153      0.45075960151270
  H   -0.33757408554262      3.05963283713018      0.57506410247062
  H   -4.87169246671979      1.22730535056378     -0.38090190111579
  H   -4.82857052017581     -0.48897611612240     -0.53990077306873
  H   1.97265490317545     -3.38074400473718      0.24891406561584
  H   4.47448671034241     -2.83242408014229     -0.37878716728491
  H   4.73567969703030     -0.20890450840515     -0.63880714260414
