28
Coordinates from ORCA-job ./opt_b97-3c_parallel
  N   -3.52652927183634      3.54639149239157      1.15700471327788
  C   -3.19587038060473      2.49028288024923      0.80194876634921
  C   -2.84603031933591      1.20125479614689      0.38403542180890
  C   -3.74194227664587      0.21620796303971     -0.08572314584886
  C   -3.04468492461644     -0.89484944816640     -0.51040169269898
  C   -1.66150701115505     -0.71114418405439     -0.26046247301844
  C   -0.78428719975103     -1.78348899095221     -0.26420558915554
  C   -1.36663022872364     -3.00336365996262     -0.71698015609964
  N   -1.81760923846823     -4.00779307162916     -1.08638475841810
  C   0.56801673307452     -1.97170505822381      0.22301492118768
  N   0.85222727999110     -3.23331244258638      0.61839312853007
  C   1.63586507689832     -1.04677230074177      0.23465971531005
  C   2.89835927782615     -1.63383409492279      0.52335300197301
  N   3.86115539453961     -2.22179556978822      0.80077190390837
  C   1.72357194530229      0.32876013816843     -0.06523416543529
  N   2.93427035891278      0.84499878953572     -0.26865083264444
  C   2.71705934079498      2.18826178042043     -0.35287418175466
  N   3.70919403839669      3.02937757518244     -0.62690169814316
  N   1.45447451794294      2.60690564821741     -0.14472490843023
  C   0.75008895279709      1.47386919190988      0.02452008826799
  N   -0.53117591849458      1.57155180121751      0.29990400145093
  C   -1.52101257097876      0.72739444500233      0.22452504098132
  H   -4.81411873150143      0.32950230605365     -0.10837594003287
  H   -3.49156943990632     -1.80759150777756     -0.86465718602804
  H   0.17599942803682     -3.96895246686707      0.52027766932744
  H   1.80420663715173     -3.50886194364013      0.79201467268990
  H   4.64294067936048      2.68101134632277     -0.74370582129225
  H   3.53395236739259      4.01699974655564     -0.65295730496228
