28
Coordinates from ORCA-job ./opt_b97-3c_parallel
  N   -4.62599741269781      2.33417086421326      0.36394040252537
  C   -3.60877381011346      1.79895015080876      0.21115658311153
  C   -2.32899610430660      1.18308674066934      0.02163117363522
  C   -1.34993108037917      2.13828808836865     -0.28126058880559
  C   0.02747420896769      2.11890364019068     -0.33612727920449
  C   1.03399087094597      1.18426750710344     -0.12771893179311
  C   2.38182958824479      1.65585826818476     -0.00151107136320
  C   2.77799408596198      3.00011774050639     -0.07592730651053
  N   3.09287786607706      4.11643200378284     -0.14478578395317
  C   3.22788363950422      0.58131821951695      0.24287174366464
  C   2.46556915565252     -0.59336236861714      0.21667384373626
  C   3.03985469250631     -1.83459095478006      0.54028534386660
  N   3.59407123890802     -2.80107496895832      0.86855969118986
  C   1.09265175649517     -0.26607445704050     -0.02321526673221
  C   0.10256182116388     -1.25211773959061     -0.23360139446286
  C   0.62588636294947     -2.52466129039794     -0.63741779386192
  N   0.99258444963866     -3.53644454708016     -1.06845739164665
  C   -1.29415715109593     -1.25033041185629     -0.13466143051521
  C   -1.99396772523346     -2.48528552937308     -0.12785718605958
  C   -3.32731650587349     -2.27323084497465      0.19202796425586
  C   -3.53108109689663     -0.90562744797351      0.35149858148261
  C   -2.32114566800351     -0.21096734292476      0.13785569212595
  H   -1.76030076788581      3.12910408027841     -0.41939246964928
  H   0.42986963929903      3.11161158214068     -0.50454126841014
  H   4.28517258586268      0.63276904593544      0.43732530713919
  H   -1.53863001016521     -3.44694530258337     -0.28954664055624
  H   -4.07812941812993     -3.03958776479721      0.29616519392592
  H   -4.47594596399667     -0.43311564905260      0.56271964066524
