30
Coordinates from ORCA-job ./opt_b97-3c_parallel
  N   4.58129651898980      1.57238543789069      1.70357772856996
  C   3.58308847506622      1.63036795461842      1.11090439318779
  C   2.35254200637394      1.78564186264056      0.45923903995891
  C   1.82435552066104      3.04403148923617      0.09919502605616
  C   0.58920410794246      2.86865190818772     -0.48864926528697
  C   0.23334673891672      1.49828485175268     -0.41764941611137
  C   -1.09875013838682      1.11527638616784     -0.54056786213180
  C   -1.93317241266812      2.05441683992849     -1.21674128081641
  N   -2.55796047971072      2.79314166548512     -1.85603667751262
  C   -1.74963207057129      0.01107664303560      0.04641975115718
  C   -3.09758358018646      0.01552703959404      0.46758049830172
  C   -4.03311698445072      1.05774206602337      0.47162388277293
  N   -4.85519026251587      1.87664414270269      0.53631190011407
  C   -3.32710511966945     -1.24746129448244      1.07373825719074
  N   -2.27228570853202     -2.03870407215779      1.00035032527500
  C   -1.27159830948979     -1.33019911669124      0.39143930875156
  C   -0.17288543434442     -2.08043663772728     -0.02396257352602
  C   -0.35888562355725     -3.48852199223546      0.09501287349565
  N   -0.38873765723391     -4.64937874392696      0.09359834962067
  C   1.10536073712550     -1.72474726599743     -0.55465136982742
  N   1.75737371727258     -2.67690549921326     -1.25112087136856
  C   1.83584052408301     -0.53910932295458     -0.21420363684038
  C   3.23963204052293     -0.75202738614590     -0.30428495952887
  N   4.35807118986969     -1.01190833353855     -0.48017840755677
  C   1.42933662672679      0.77029556233293      0.07664910702725
  H   2.31259879602145      3.98568011348680      0.28851909410798
  H   -0.07327149237724      3.65504420694459     -0.80738330600649
  H   -4.24044636524910     -1.55812495243114      1.55737656877845
  H   1.37847085307907     -3.60769284875626     -1.30473717137694
  H   2.73999656259299     -2.58208262817021     -1.44515386267610
