27
Coordinates from ORCA-job ./opt_b97-3c_parallel
  N   -2.65555353300872      3.59182998922434     -0.00499653942258
  C   -1.96134770400664      2.66216739734754     -0.00683996870890
  C   -1.08965425088515      1.52620165986920     -0.00755079601037
  C   0.25972246261405      1.92677418678442      0.00440442949687
  C   1.48911383542744      1.30211900557520      0.00941059994041
  C   1.94244529090895     -0.01225464163308      0.00552403870023
  C   3.32729449336691     -0.32414454989823      0.01299210797758
  C   4.38531096689924      0.59224780045814      0.02470921756833
  N   5.25619802991466      1.36304352199635      0.03438240536046
  C   3.42158382990094     -1.72852427475643      0.00627200081311
  N   2.22777111135332     -2.31571570721926     -0.00443165787763
  C   1.28747241197148     -1.31729085788341     -0.00556504121579
  C   -0.03210618154824     -1.72917300592924     -0.01512474564375
  C   -1.27847414110178     -1.11777700659725     -0.02006971955647
  C   -2.41937486512510     -1.92032162797554     -0.02747984447518
  C   -3.57408174650348     -1.10989366786987     -0.02812426448497
  N   -4.85080158403115     -1.55159527665956     -0.07040621143971
  C   -3.16178538638411      0.23087973311553     -0.02539126753417
  C   -1.76296697464679      0.29530634473641     -0.01814531038864
  H   0.35417578425756      3.00469079589849      0.01071502908825
  H   2.30443067029448      2.01762671282213      0.01866792140974
  H   4.33325019347269     -2.30660695052216      0.00916890433278
  H   -0.08731541240470     -2.81210640801129     -0.02039141710474
  H   -2.40705103236094     -2.99930445030443     -0.03464601628906
  H   -5.60105000007496     -0.90935596242208      0.10823809057743
  H   -5.04803396416061     -2.51623077939252      0.12255722278057
  H   -3.82171405423939      1.08252761104660     -0.02892345329381
