28
Coordinates from ORCA-job ./opt_b97-3c_parallel
  N   2.53098202241245     -3.99543307850444     -0.00321833255081
  C   1.86255800051871     -3.04722666479174     -0.00286997176202
  C   1.01222243375046     -1.89461383145581     -0.00224684744327
  C   -0.33823451072401     -2.27677221054208     -0.00040029937775
  C   -1.54995747322042     -1.62262519234716      0.00067124331003
  C   -1.96584943716923     -0.29857341649114     -0.00004835459666
  C   -3.34919882897756      0.02846833361682      0.00101891298204
  C   -4.41421769334996     -0.87953328995687      0.00302132576330
  N   -5.29054165903002     -1.64396614987868      0.00496526529805
  C   -3.43172963460481      1.43118645138285     -0.00043507834140
  N   -2.23052304592646      2.00178742943376     -0.00221353165465
  C   -1.29866518144729      1.00347862025830     -0.00204066571285
  C   0.03751192836615      1.42572717194871     -0.00330563871434
  C   0.14796223965480      2.85802072611845     -0.00452523585259
  N   0.36206666098845      3.99739980360143     -0.00546159551293
  C   1.28436787786427      0.76722642983293     -0.00358121817780
  C   2.46344667353023      1.51241326808446     -0.00472778959342
  C   3.57873655503811      0.65060927529376     -0.00526226499457
  N   4.86481161159406      1.03586642877910     -0.00609158118183
  C   3.10628937453404     -0.67039480416987     -0.00451018548311
  C   1.70750318392645     -0.67351724928387     -0.00337145573510
  H   -0.45369810877204     -3.35242529196576      0.00038840906897
  H   -2.38454578235689     -2.31508773353313      0.00227941211511
  H   -4.33438859242231      2.02249709465670     -0.00021271012509
  H   2.51569334502474      2.58742003558302     -0.00518241290350
  H   5.60992451219068      0.36515891951914     -0.00748728932866
  H   5.11702926442876      2.00617487726187     -0.00757312616430
  H   3.72618343687975     -1.55102699315415     -0.00464546702900
