30
Coordinates from ORCA-job ./opt_b97-3c_parallel
  N   -2.37503074780097     -4.26064500265043      0.22474628454634
  C   -2.03654219808503     -3.15017360487773      0.16675202955722
  C   -1.59959539122548     -1.79526421503913      0.09272025716664
  C   -2.63913737714237     -0.86549287552113      0.06442058729873
  C   -2.73154774838527      0.51589965339211     -0.00665784246133
  C   -4.02529706999118      1.11422271612365     -0.04838688550497
  C   -3.90865983177126      2.49463276541474     -0.10999420970155
  C   -2.54483651775280      2.79741975293918     -0.10171854908091
  C   -1.77941474245659      1.60898254653346     -0.04009516623389
  C   -0.38666186375211      1.69807981913698     -0.00602243517687
  C   0.65940653198368      0.80944409106396      0.02711082714849
  C   2.00728252259382      1.28234243820612      0.05101527406165
  N   2.43149774645315      2.55991692756288      0.07205729556707
  C   2.89479563651888      0.18450723024225     -0.01515618699238
  C   4.28730374055318      0.26165181817188     -0.02641204055534
  N   5.45036767904546      0.32831422315041     -0.03503993655765
  C   2.13329563088849     -0.99851257791181     -0.06286838263191
  N   2.68396711457374     -2.22264364805249     -0.09637347356598
  C   0.73249669455944     -0.66596179882933     -0.01048969516552
  C   -0.19087830029206     -1.67500675455444      0.03700607394316
  H   -3.61288734580805     -1.34142466450272      0.09617538246705
  H   -4.94716854881579      0.55180416517968     -0.03329201561776
  H   -4.71879894168084      3.20436437803582     -0.15278834481443
  H   -2.11834988681253      3.78996810085270     -0.13581317901782
  H   -0.07139009537007      2.73719462726802     -0.03244375082645
  H   1.80797451143681      3.29178677040635      0.35643083273296
  H   3.40817384315168      2.73825569753124      0.22839498004034
  H   3.67495639411893     -2.30856524363522     -0.23721306835124
  H   2.13579408211661     -3.03060008611474     -0.32391712055485
  H   0.25920738114854     -2.66049036912231      0.05296870458119
