26
Coordinates from ORCA-job ./opt_b97-3c_parallel
  N   -3.36371380493051      3.38479644383046     -0.00034240132460
  C   -2.58601742968295      2.52392802143705      0.00005261740384
  C   -1.55530330236264      1.53568756745101      0.00041816213394
  C   -0.26769138763900      2.08615721425388     -0.00017895716613
  C   1.02360021650528      1.59951285567146     -0.00020228397540
  C   1.61551056229747      0.34299549528996      0.00027101912918
  C   3.00533827862714      0.18653125946275     -0.00009551976470
  C   3.99088952550724      1.17381472058283     -0.00086536341809
  N   4.84765693221466      1.96229746603392     -0.00175743923305
  C   3.25464105041614     -1.22295074265622      0.00041854423924
  N   4.45389232319139     -1.79872344083764      0.00023299514223
  N   2.12783527631340     -1.94283574136842      0.00110395067014
  C   1.08828998148532     -1.07497999376929      0.00108338230596
  N   -0.10682222009157     -1.59921564790852      0.00182062595444
  C   -1.34202941814696     -1.15177361698429      0.00204368592819
  N   -2.32454272427186     -2.06768226894642      0.00301523319047
  C   -3.46653694112854     -1.35033149612770      0.00291558323152
  N   -4.66298611616002     -1.92845845199781      0.00376854692707
  N   -3.33976765604995      0.00257291448592      0.00192244030452
  C   -2.02357907498656      0.21098770089921      0.00135854558698
  H   -0.29497621028646      3.16817216442001     -0.00077221665109
  H   1.75763723414403      2.39784543898859     -0.00079273454248
  H   4.51582622883396     -2.80129688904545      0.00070866789921
  H   5.29763535380659     -1.25482391472346     -0.00017791269122
  H   -4.73562239699061     -2.92905551100896      0.00436442698519
  H   -5.49169566961491     -1.36243656153291      0.00351013413464
