26
Coordinates from ORCA-job ./opt_b97-3c_parallel
  N   4.92397946820648     -2.30753843777311      0.00244652139272
  C   4.16822039645134     -1.42451640461678      0.00158050874473
  C   3.24825415683853     -0.36571488234206      0.00035487322280
  C   3.57905983153944      0.99241353211264     -0.00166438534832
  C   2.40447397672681      1.72963629336013     -0.00230729629314
  C   1.28705281023164      0.86762772542465     -0.00075075886127
  C   -0.01865419242944      1.38737005609090     -0.00102546368192
  C   -0.07400524451669      2.82265928770841     -0.00271835736575
  N   -0.00529513951590      3.97958633552113     -0.00377871971467
  C   -1.29632879756465      0.80480048655256     -0.00004387722545
  N   -2.33792822234273      1.69113546194503     -0.00110503367361
  C   -3.46629930962429      0.99380338150760     -0.00003606443741
  C   -3.21975181303458     -0.39309556207763      0.00183883948489
  C   -4.17796003936967     -1.41467566278778      0.00336692097090
  N   -4.96718081146476     -2.26800011275060      0.00450972799971
  C   -1.81090570971561     -0.56195969298199      0.00189385601424
  C   -1.25951601522431     -1.84276937903953      0.00364551972198
  C   0.01866520277020     -2.35169321045960      0.00415178279714
  C   1.29172830558296     -1.78410551633156      0.00299568365723
  C   1.82322404836618     -0.51104264109244      0.00099342696415
  H   4.58069634805757      1.38899246196463     -0.00254277874127
  H   2.34891202755598      2.80415256139694     -0.00378394566728
  H   -4.43039090238016      1.47780719335609     -0.00058960680330
  H   -2.01922145775948     -2.61708271779823      0.00489677455461
  H   0.04534636190771     -3.43384243514313      0.00573932026965
  H   2.06660115020740     -2.54329591714629      0.00388712811869
