33
Coordinates from ORCA-job ./opt_b97-3c_parallel
  N   5.20820132620846     -0.06984632614288      1.74933165621269
  C   4.27264409707947     -0.46100293758009      1.18051730912225
  C   3.13758931427525     -1.00689955963543      0.56668370827745
  C   2.93922557218983     -2.39655534443144      0.40056122099351
  C   1.71415868102461     -2.61540818759433     -0.18874451014754
  C   1.03017285370800     -1.37976053853624     -0.31676311180548
  C   -0.34349732028081     -1.37415033772902     -0.57151200521435
  C   -0.82934526960514     -2.58513852669898     -1.15082240656311
  N   -1.17590927431280     -3.53868995012225     -1.71322167282911
  C   -1.33812054339650     -0.43852498780708     -0.21250296543581
  C   -2.67739253081948     -0.80174783032108      0.04142420023817
  C   -3.29473198152118     -2.05560277000798      0.09500037690100
  N   -3.95275960204243     -3.00765507120801      0.21538663575026
  C   -3.41737833045249      0.35854264220694      0.43248071160719
  N   -4.70368237463703      0.36103603593579      0.78216184326840
  C   -2.54805710601791      1.45681215514030      0.38282609869606
  C   -2.92943701941210      2.77607878807221      0.62508135926314
  N   -3.26732373117523      3.87219825885440      0.82640252851424
  C   -1.24654102494433      1.01130518520238     -0.01838296807719
  C   -0.29382571003479      1.94719052104190     -0.33815331264807
  C   1.06149856357839      1.96050346648952     -0.71605781091923
  N   1.45632040781930      3.09737124023593     -1.34737493794961
  C   2.07232327557198      1.01871309906230     -0.36042864917171
  C   3.37924276558894      1.55136335716979     -0.52913618595204
  N   4.38636061370038      2.07156390629952     -0.78465907567451
  C   2.00247832124202     -0.31748743440640      0.06674726651115
  H   3.63635886687410     -3.15325664948968      0.72121899503814
  H   1.27423270700439     -3.57844260144395     -0.38098677572084
  H   -5.15495343842839      1.20451964071912      1.08699188853190
  H   -5.23399246044353     -0.49273992239887      0.79323398915819
  H   -0.69581630370366      2.95487888635660     -0.29888552526150
  H   2.43062674727788      3.32878237789080     -1.43931491658811
  H   0.80225954629279      3.84787402748046     -1.46994544612728
