26
Coordinates from ORCA-job ./opt_b97-3c_parallel
  N   -4.69753523524278     -0.76303863350832      0.02039303813540
  C   -3.57377603475589     -1.05936084080930      0.01766644556021
  C   -2.22754523779416     -1.44491740318366      0.01436192795897
  C   -1.73513644888122     -2.73929802750994      0.00956235665259
  C   -0.33585497909518     -2.69795796958240      0.00099013129405
  C   0.12668264176571     -1.37754766998457      0.00669717296587
  C   1.51513297474789     -1.10871728538206     -0.00234064668590
  C   2.30821026178602     -2.29035240688441     -0.06942380228536
  N   3.00705834622921     -3.21612517217842     -0.13135854758159
  C   2.30968951222269      0.06451282566068      0.06033095598388
  N   3.66935249425002     -0.10165768759498      0.15418610136996
  C   1.93054210701988      1.42595483100938      0.06200058081164
  C   0.77743779543599      2.15406106634400      0.01061798412022
  N   0.94585402523861      3.52525990752112      0.00215452184554
  C   -0.27164189599055      4.06209510926999     -0.03532406728578
  C   -1.29457920816532      3.09750708348135     -0.04643956421900
  C   -0.67329495981843      1.85022055543721     -0.01919624898261
  N   -1.40446429989277      0.74284731108335     -0.00778683526769
  C   -1.11856555652305     -0.51995229695193      0.01045596518915
  H   -2.33425238292187     -3.63526294551475      0.01327708948437
  H   0.29391428273059     -3.57143428800131     -0.00076253834510
  H   4.26037420628363      0.68154798118153     -0.05264678685415
  H   4.08159750819413     -1.00536355204718      0.00149963241489
  H   2.78014960923008      2.09866259188315      0.10725639498158
  H   -0.39276131347055      5.13577095788996     -0.05274153106773
  H   -2.36077059818270      3.24987257097164     -0.06788676109340
