33
Coordinates from ORCA-job ./opt_b97-3c_parallel
  N   -6.32427787503326     -1.09722118519905      0.05906196919076
  C   -5.23987159400844     -0.67744154663534      0.12284785018256
  C   -3.90883419577160     -0.25111603116674      0.16446450157133
  C   -3.39912710230575      0.98121500646475      0.58160339421385
  C   -2.00700475483536      1.00803513477844      0.39164892711827
  C   -1.29045407224167      2.17690084325271      0.66324431791602
  N   -0.12137682736329      2.61037695341526      0.28158909537375
  C   0.96552684910277      2.09465613560156     -0.27096119771584
  N   1.71017017620816      3.05760165850462     -0.94982521706028
  C   1.55478679562670      0.82573934349250     -0.12936577883399
  C   2.95931862800437      0.61616881703540     -0.15229862026839
  N   3.94472940149473      1.52560453603413     -0.32598104336357
  C   3.22929781244061     -0.76330011647373      0.07109396912455
  C   4.49397175500714     -1.33423965516631      0.19894041773068
  N   5.55174944963775     -1.81130218544060      0.31174668539763
  C   2.00198805360905     -1.42981247064543      0.20550553163453
  N   1.87703998641051     -2.76895789555218      0.38080326897508
  C   0.93120353192821     -0.48711923845274      0.06350083852687
  C   -0.36490134906169     -0.93185917994027     -0.07751534707990
  C   -1.60598724778046     -0.29889151195851     -0.09913069709579
  C   -2.80623836292094     -1.04650070836079     -0.26293671817372
  N   -2.91121298905504     -2.33867036942988     -0.66886413619872
  H   -3.99225936047961      1.80560365433447      0.94462551715700
  H   -1.85540931030877      2.92056256704234      1.22298371073178
  H   1.21900532435170      3.93533300082103     -1.02038474032773
  H   2.11796458697022      2.75370444602361     -1.82033710043397
  H   3.69502859283998      2.49828814927475     -0.23507877209548
  H   4.86818339931601      1.26823237902531     -0.01915622325855
  H   1.07422811440592     -3.10602729592747      0.88048666265395
  H   2.72117530838339     -3.28192251247321      0.57204168252912
  H   -0.44206832846082     -2.01360954894074     -0.15182131113658
  H   -2.24318699199456     -2.67662330607259     -1.33808087625764
  H   -3.84319676671520     -2.69208390696523     -0.81033255052756
