28
Coordinates from ORCA-job ./opt_b97-3c_parallel
  N   4.93485414429220      2.34212605101839      1.29850820601495
  C   4.29937115121948      1.44135985362436      0.93148885236828
  C   3.54058348490749      0.34741885519535      0.49982308005230
  C   3.98781209765907     -0.94835767938478      0.28871282723196
  C   2.94377041620634     -1.73398778566551     -0.22964951675574
  C   1.77799050207869     -0.97547893521024     -0.32120675565443
  C   0.50471726232645     -1.55180199394079     -0.43348132311463
  C   0.51504718655578     -2.95972711939855     -0.67958149250856
  N   0.61751379308366     -4.08808793524261     -0.92575487586182
  C   -0.77929250583146     -1.03982260036174     -0.16150587313744
  N   -1.74543339664226     -1.96045483001506      0.06394283162778
  C   -2.85963291695541     -1.30122474138438      0.39301119974543
  N   -3.98325767290929     -1.92228199633335      0.74121532299385
  C   -2.66894652669147      0.12044188274673      0.32618860509944
  C   -3.68510734501337      1.02439732265416      0.64799852202842
  N   -4.60726800289119      1.65191531419408      0.97757271577775
  C   -1.33641413495635      0.32236033583632     -0.04670546205324
  C   -0.82590267297394      1.56691917436049     -0.50322533115376
  C   -1.78370883129598      2.53564434364468     -0.91669018041374
  N   -2.52095977373739      3.33636535830279     -1.31947630822322
  C   0.47953386132550      2.03426719212154     -0.61458323752373
  N   1.62998129596367      1.58442876907141     -0.14662576818705
  C   2.16938006776880      0.43007144176835      0.05169527754857
  H   4.98946386614655     -1.29534798369601      0.48457875342251
  H   3.01487316195899     -2.78673674793190     -0.44459972058728
  H   -4.80633782713356     -1.40643622031098      0.99640696412035
  H   -4.01166266320066     -2.92630831059070      0.74999300651052
  H   0.56452697933596      3.02758991744123     -1.04269091506320
