29
Coordinates from ORCA-job ./opt_b97-3c_parallel
  N   -2.91561680238754     -3.31896319425698      0.03336760960286
  C   -2.16948300202931     -2.43034288625316      0.01978778819888
  C   -1.16494915485749     -1.41404719383661      0.00707862044520
  C   0.10808202694130     -1.99092466012901      0.00365331446979
  C   1.42653805748770     -1.55638245509727     -0.00360770799888
  C   2.05859612971087     -0.33333909539697     -0.00239226216495
  C   3.46616538964085     -0.23010823169364     -0.00643395694195
  C   4.39378270023358     -1.27217810624338     -0.01647655684464
  N   5.20851886527009     -2.10457614006285     -0.02473824189430
  C   3.83359191606830      1.14720763944576      0.00382490530440
  N   5.09355076138703      1.59327723230218      0.00353712258151
  C   2.65991185470548      1.91747623195951      0.01347877047915
  C   1.54570578019490      1.07829642726420      0.00928281262414
  N   0.34777042736787      1.62628229010209      0.01247401997032
  C   -0.90010061325043      1.24664349160236      0.00598794784922
  N   -1.80938182640065      2.26120544908737      0.00442282876329
  C   -3.02060358632746      1.71714891523444     -0.00495197592156
  N   -4.13595984446446      2.44518387918684     -0.01160117651727
  C   -2.97967185187206      0.27894001276562     -0.00720575473398
  C   -4.17382783149884     -0.44810106128451     -0.02180472528297
  N   -5.26371183733160     -0.85694094237109     -0.03616954875270
  C   -1.62904044373437     -0.08079122351263     -0.00006191839391
  H   0.05023060643863     -3.07147907855562      0.00709430169793
  H   2.12324287449478     -2.38758135444086     -0.00902087904548
  H   5.29885421890209      2.57445059724714      0.01199513901331
  H   5.86744638955696      0.95235943842752     -0.00388118468771
  H   2.59440582904530      2.99249259561208      0.02097199158612
  H   -4.06982558552629      3.44681599193685     -0.01124441933429
  H   -5.04118591646526      2.00999507706062     -0.02086337187157
