27
Coordinates from ORCA-job ./opt_b97-3c_parallel
  N   -1.27195118447071      4.46530966260702      0.10560991207188
  C   -1.09454766436412      3.31697767533806      0.07822015332750
  C   -0.84789942496561      1.91374395884198      0.04270488510805
  C   -1.99350934052870      1.12737956265571      0.02790895750178
  C   -2.24421757704891     -0.24056416769017     -0.00820963993058
  C   -3.58676497755400     -0.70663465130654     -0.02721986343748
  N   -3.69180667518595     -2.04221084666043     -0.05860847046330
  C   -2.41626349704754     -2.48258256696573     -0.05881000279990
  C   -1.45868601978083     -1.44768725261815     -0.02916788614537
  C   -0.09259230343811     -1.74559813654474     -0.01807758764237
  C   1.04207484489365     -0.98349410457843      0.00131280997740
  C   2.35815802130244     -1.56363382133880      0.00842684498089
  N   2.67895312205893     -2.86415597770837      0.00044499817856
  N   3.34823761559828     -0.65265134659451     -0.01169627262307
  C   2.74560245531160      0.54448681657822     -0.02395869193753
  N   3.49842503280567      1.64952910333197     -0.02578013446299
  C   1.29644177429615      0.46156241991559     -0.00349128984443
  C   0.53701611692781      1.59534727825673      0.02074083013116
  H   -2.90481107893284      1.71558093949543      0.04363923180710
  H   -4.46726822721471     -0.07759539614638     -0.01856280181866
  H   -2.19819818702911     -3.54285454465322     -0.07989098019739
  H   0.08189395971831     -2.81842451345674     -0.04091007565652
  H   1.99666069049776     -3.57074921909082      0.19730682130124
  H   3.64553640237867     -3.10459686943707      0.12878872151100
  H   4.49095721398439      1.54146653205202     -0.13168794832129
  H   3.10876839043067      2.55989914570660     -0.17679124489292
  H   1.12540157365676      2.50559681061075      0.03698252647729
