27
Coordinates from ORCA-job ./opt_b97-3c_parallel
  N   -3.73510524348389     -3.37352583888918     -0.76895568390123
  C   -3.34167763368971     -2.31549908163514     -0.49005234312111
  C   -2.87566569716984     -1.03617813399649     -0.16205943730282
  C   -3.68310960203425      0.01459031015058      0.35182340984507
  C   -2.88851730621161      1.09765657680282      0.61765218404323
  C   -1.54364860772593      0.80619391809057      0.22936675301250
  C   -0.60964392404789      1.82040771651356      0.11040805818563
  C   -1.02848040442290      3.11759901196542      0.51198324861230
  N   -1.33821702472781      4.19459114774397      0.81796969464238
  C   0.74701967843039      1.80563206211059     -0.41879371540388
  N   1.14340080863045      2.90466875217901     -1.10135270788740
  N   1.67919190124743      0.92343129906760     -0.18862507858126
  C   1.76406972520329     -0.36153384808179      0.05326473608261
  C   2.98809915389750     -0.98131510893759      0.41566658323731
  C   4.18277751493554     -0.31821832563661      0.71297138189300
  N   5.17503286822831      0.23646309177282      0.95540832420067
  C   2.76970587179140     -2.36685627121791      0.29673344888280
  N   1.52914013953859     -2.66792781425436     -0.09917803268605
  C   0.84820231536695     -1.49303599970694     -0.20695954847273
  C   -0.51479238276364     -1.54357689224907     -0.40058612268733
  C   -1.52847372889042     -0.61383159880024     -0.21074732278247
  H   -4.74809035668884     -0.05087478117318      0.50295927068395
  H   -3.22639944715738      2.05326407420524      0.98050183930622
  H   2.13357945999191      3.03362625361468     -1.22462777837117
  H   0.55727298585191      3.71825718078777     -1.16259818092294
  H   3.49805474749606     -3.14218942671884      0.47966213920241
  H   -0.85971592589564     -2.55150937030726     -0.60302571240968
