31
Coordinates from ORCA-job ./opt_b97-3c_parallel
  N   4.73554049393447     -1.85615959468165      0.81248908085071
  C   4.14626301420259     -0.90190000331734      0.50758467191307
  C   3.48674275206988      0.27729236625175      0.14181644101320
  C   4.12329475649672      1.46789449705642     -0.30598527603610
  C   3.16815310136052      2.39296886792867     -0.63691753803572
  C   1.86917207068230      1.86023511546840     -0.36132125921505
  C   0.78059638217997      2.67581587451569     -0.39308555592795
  C   -0.56908665388429      2.59098931836111      0.04982807625396
  N   -1.13503920569911      3.82084887489407      0.22652248264097
  C   -1.39717180110276      1.45983630709797      0.23296223314466
  C   -2.68757733752310      1.80367424170193      0.71589967756676
  N   -3.67999943146458      2.19002760836152      1.18205395821428
  C   -1.20071128919875      0.07625176416725     -0.01010276481830
  C   -2.28173098260722     -0.80166051165573     -0.18759740746051
  C   -3.62409901269171     -0.53127540499740     -0.47389121008865
  N   -4.74806223250724     -0.45587354771954     -0.76563402425871
  C   -1.82046169602558     -2.15926558266820     -0.14797488614944
  N   -2.59113324849899     -3.22989637856734     -0.32459237932150
  C   -0.43961948876358     -2.14107411351183      0.08207038517743
  C   0.34228555052361     -3.29474184952818      0.16786759073991
  N   0.89496050087578     -4.31646186474164      0.22768820491980
  C   0.01355708138447     -0.78725362338647      0.11822154386389
  N   1.29553689107428     -0.58309110658672      0.26103747508983
  C   2.08584259468681      0.45124612790030      0.08876027336218
  H   5.19130252572368      1.59892340953519     -0.36993797103815
  H   3.34919249621677      3.39993220145624     -0.97800049202508
  H   1.02171875551768      3.67738076519794     -0.73499201508739
  H   -2.06481761075474      3.90079691582428      0.60201577375145
  H   -0.53913651733439      4.61588794736490      0.36138964224179
  H   -2.19719425638421     -4.15398453152415     -0.29659918169564
  H   -3.57628291799412     -3.13435304809393     -0.49984749048423
