32
Coordinates from ORCA-job ./opt_b97-3c_parallel
  N   -2.71416475288056     -3.93634787206689     -0.51997849906773
  C   -2.24791400892489     -2.88536485227980     -0.33667093343118
  C   -1.65487749386573     -1.61255181800649     -0.11698542105396
  C   -2.62648910715699     -0.63319068389445      0.12010232093959
  C   -2.68379370968635      0.74088921633178      0.21896391771570
  C   -3.93676118384438      1.37899315900911      0.47377504959450
  C   -3.77922243415509      2.75167480163785      0.40822757338757
  C   -2.43714613352888      3.01117349113784      0.09229414106642
  C   -1.72779525377158      1.80028290005796     -0.01890025914032
  C   -0.36264446919589      1.80017309287500     -0.30342297627786
  C   0.63684979473491      0.86069777785058     -0.30095141136490
  C   1.99022392845916      1.33447888320321     -0.39395849602343
  N   2.39635070156716      2.58173171339530     -0.73106729234290
  C   2.85803847503828      0.32720684616197      0.04550589710638
  C   4.24125318462746      0.43676293636380      0.18378664836475
  N   5.39724843152740      0.52786290873277      0.29947727106947
  C   2.08826173522603     -0.82759126213084      0.33718553215556
  N   2.68538255722324     -1.97214530212628      0.77423605670707
  C   0.71511309034955     -0.57841960154332      0.05304936651543
  C   -0.21720632663515     -1.62831680271133     -0.07803602276374
  N   0.32063574028207     -2.89421824420031     -0.12643624053396
  H   -3.61132650313375     -1.07919302036755      0.21120312306188
  H   -4.85625762630310      0.84768133683107      0.66985249438500
  H   -4.54977325849543      3.49112796580441      0.55669384529711
  H   -1.99704550995694      3.98862760152646     -0.04420571918219
  H   -0.00297119181726      2.80967514214194     -0.47398916584624
  H   3.38585903208775      2.72821869141738     -0.83484017350077
  H   1.83147775491907      3.11602066786311     -1.36545910687991
  H   2.10900942888074     -2.62303952601162      1.28200177640380
  H   3.61586279266142     -1.86312469058858      1.14508304659257
  H   1.21545651812067     -2.99887096748605     -0.57381757072941
  H   -0.31128077685152     -3.65991163562928     -0.29379792422402
