27
Coordinates from ORCA-job ./opt_b97-3c_parallel
  N   3.04783951855803     -3.97219661773088     -0.02638195091384
  C   2.33297284649828     -3.05886615547160     -0.02014150187292
  C   1.42584497830439     -1.95151984781085     -0.01268689375992
  C   0.08494972800503     -2.38820083332710     -0.01237497316677
  C   -1.14635890126249     -1.77587191202406     -0.00682439498655
  C   -1.60748318413087     -0.46125364097450      0.00067948641204
  C   -2.97980850804699     -0.16728550355978      0.00476018976538
  C   -4.05465877132916     -1.05744850301796      0.00257918796810
  N   -4.97975963932339     -1.76397280634843      0.00100352743705
  C   -3.08922925863157      1.25885266314905      0.01182588191869
  N   -4.22164433761080      1.96250510206620      0.01729072293730
  N   -1.88888151810537      1.84957941671464      0.01242446173702
  C   -0.94937548113625      0.87113837811905      0.00594802923682
  N   0.30172661657501      1.27141616590384      0.00577640177119
  C   1.47823445075477      0.70861996205609      0.00094764121874
  C   2.61933502723474      1.56267097086473      0.00345331284950
  C   2.57001322870918      2.96329108560447      0.01078281964360
  N   2.57286277187202      4.12487424788508      0.01663005043593
  C   3.78561364394715      0.78278704111210     -0.00255088789926
  C   3.43773519509606     -0.55909952502111     -0.00897418812744
  C   2.03668491088368     -0.69886618834371     -0.00728980321918
  H   0.00951515641079     -3.46730164855260     -0.01777812074397
  H   -1.95774741141295     -2.49573884748975     -0.00889567217568
  H   -5.11980976647907      1.51534722333591      0.01712607202646
  H   -4.17416516683787      2.96559378417192      0.02226593004170
  H   4.78953513397158      1.17505244625436     -0.00218974458321
  H   4.13555997988567     -1.37941375316522     -0.01443907345074
