29
Coordinates from ORCA-job ./opt_b97-3c_parallel
  N   -4.58064815401726      2.46261087020864      1.01402971541380
  C   -4.06084574951294      1.48828478669541      0.65137180587283
  C   -3.48763433422449      0.28849397845381      0.21364301772732
  C   -4.21680781550764     -0.83280546974833     -0.28911086037815
  C   -3.33975050262520     -1.79291312969966     -0.70452391654811
  C   -1.99853215474013     -1.36733881998605     -0.41836680818211
  C   -0.98007223201940     -2.26036783688481     -0.48462703578797
  C   0.36641636803120     -2.29749349435028     -0.00817511501053
  N   0.82029415673788     -3.57367334857230      0.15695094805174
  C   1.26832492434882     -1.24311763472644      0.21783068060225
  C   2.51973822860853     -1.68333948645778      0.72131194839928
  N   3.48133478928791     -2.13787788741126      1.19088866553284
  C   1.17630373812079      0.15726857598181     -0.02125867125722
  C   2.29682645459972      0.96520358738448     -0.18077877091061
  C   3.63264188708136      0.64883994066429     -0.44142680865154
  N   4.75943355374520      0.52499692999928     -0.70531599112799
  C   1.82686496022022      2.33165490488075     -0.13692414338920
  N   2.60037617392013      3.40362515532560     -0.30263484599299
  N   0.52308526817792      2.40970949414462      0.07905464285846
  C   0.03767110939380      1.13459206756311      0.11654052244908
  N   -1.24771396882791      1.01131131374048      0.29525016144476
  C   -2.10779300587324      0.03279406098329      0.11151185571066
  H   -5.29277551636771     -0.88724015402091     -0.32837755135627
  H   -3.59471420107046     -2.76367982307400     -1.09897856419522
  H   -1.28886400867886     -3.22477295381616     -0.87584434936518
  H   1.72891748072330     -3.73515172156001      0.55807808495222
  H   0.15537987601494     -4.31606601096260      0.26831868137717
  H   2.18593076380877      4.31784544346171     -0.27222272251559
  H   3.58410055834459      3.31511190658575     -0.48264791492221
