28
Coordinates from ORCA-job ./opt_b97-3c_parallel
  N   4.12169026695057      2.33383905125129      0.19499251872983
  C   3.12522044597876      1.74552983030687      0.11362812880684
  C   1.82250238288810      1.15841280648385      0.03845671553200
  C   0.85246570337462      2.17506793145410      0.02106760387000
  C   -0.52656593037998      2.27261530413561     -0.01990274482718
  C   -1.61290707209707      1.40630442787326     -0.01926861671149
  C   -2.92013189608063      1.91050036961697     -0.04842046193031
  C   -3.83508954183225      0.85273504804673     -0.01261708556156
  N   -5.17549398267479      0.92232847458246     -0.00163959366198
  C   -3.08759779886595     -0.36171194166202      0.04034245181577
  C   -3.68899121663891     -1.62225881475708      0.07498856367854
  N   -4.25832032034207     -2.63693498576731      0.10001772233812
  C   -1.70683053013091     -0.06193779725231      0.03428337020438
  C   -0.76818648409508     -1.07615421282577      0.05322720713801
  C   0.61530553382659     -1.17974951501656      0.02432220062860
  N   1.07186643600094     -2.46762024459950      0.01580691659169
  C   2.39776406732916     -2.41885777892824     -0.03008717476111
  C   2.89186387811933     -1.10090172069923     -0.04031133989766
  C   4.26477783040071     -0.82474907900698     -0.11697964314514
  N   5.42030629284635     -0.72884113227959     -0.19460865051297
  C   1.75805830275450     -0.24429288830527     -0.00333024396575
  H   1.31336223154837      3.15344496912798      0.04084155310664
  H   -0.84460804496369      3.30939916108879     -0.04711205530119
  H   -3.17429013985360      2.95818688157323     -0.08330260900847
  H   -5.64735213899997      1.79481153445620     -0.14558449263125
  H   -5.72801404647978      0.08532719693198     -0.05923485886000
  H   -1.20374607087074     -2.06888589971595      0.08106884714911
  H   2.99725233428748     -3.31592497771351     -0.05916561581346
