31
Coordinates from ORCA-job ./opt_b97-3c_parallel
  N   -5.01943785018936     -2.03819050249411      1.34329154703569
  C   -4.39026261904336     -1.13612359484180      0.96306104086637
  C   -3.58794721965355     -0.08648343654766      0.50503488188987
  C   -4.00378169722415      1.17405550729839      0.12168430979219
  C   -2.89944073757992      1.90153565025885     -0.35372535342941
  C   -1.74267532608593      1.12563480731122     -0.27349791886559
  C   -0.45463713533769      1.69124895472019     -0.38989172287755
  C   -0.45079753645870      3.07954602722552     -0.72643816846555
  N   -0.53368719228578      4.19106686825684     -1.04674348842528
  C   0.81350053656370      1.19142752853159     -0.07583680738077
  N   1.79329282045265      2.11237890186417      0.13230008747896
  C   2.90548394719308      1.44818576032360      0.42674560926538
  N   4.04483397606700      2.05437832586160      0.75859441043077
  C   2.70786563530065      0.02359988089849      0.35884059391883
  C   3.71624075921869     -0.89312531680677      0.66543623268413
  N   4.62314994195479     -1.55169531659301      0.97812389934829
  C   1.36590783283462     -0.17486390195146      0.02706200876603
  C   0.87019282909278     -1.44315584560582     -0.39689542965161
  C   1.84351216766460     -2.32145088245476     -0.93647337191430
  N   2.54691882954713     -3.09301716588978     -1.44796292497288
  C   -0.40625388822870     -2.01564905948355     -0.30762204229170
  N   -0.55892138720854     -3.31999580246007     -0.65407120983006
  C   -1.60863315959477     -1.44437671818202      0.21356996445579
  C   -2.16550008395073     -0.20942537721531      0.20744539225024
  H   -5.01704436853714      1.53737931167013      0.17839800742998
  H   -2.92786913063522      2.93182496215486     -0.66439689529013
  H   4.07884329873340      3.05738746336289      0.79193970882822
  H   4.86568282500660      1.52723363314104      0.99508645083926
  H   0.20490361864673     -3.84238067887777     -1.04791655360439
  H   -1.47773226007563     -3.70492911746605     -0.76630940537535
  H   -2.28925352028840     -2.21270541570804      0.56668229969489
