27
Coordinates from ORCA-job ./opt_b97-3c_parallel
  N   -5.13868060247071      1.82411425740619      0.00917052753038
  C   -4.29533163583003      1.02509756214272      0.00649092215396
  C   -3.31533788205513      0.02316988206324      0.00323370237069
  C   -3.56160263976481     -1.36942825308740      0.00176078895741
  C   -2.36019316180806     -2.03846347874187     -0.00281566200342
  C   -1.28577245309361     -1.10723414349520     -0.00348376124293
  C   0.03389349607370     -1.52784181417353     -0.00392145925539
  C   0.18514543531371     -2.95303607429486     -0.00649866411441
  N   0.32244269344945     -4.10434175555975     -0.00907810070414
  C   1.28509129685398     -0.84782315506862     -0.00124974589957
  C   2.48212380661026     -1.54719187079318      0.00090431555746
  C   3.52271712441884     -0.58381163886819      0.00379057829366
  N   4.83924609734509     -0.81400325428433      0.00695950063304
  N   3.04004108130628      0.66783527325831      0.00324974515750
  C   1.69073504682796      0.58121637744547      0.00026035759678
  C   0.99350490935921      1.79311459070285     -0.00293221585192
  C   1.83051490471421      2.95151632697465     -0.00387423273315
  N   2.41821552732846      3.95146195059038     -0.00510077444062
  C   -0.37802425610451      2.14971407855307     -0.00488274612466
  N   -1.51594211288131      1.51142187992249     -0.00200862952973
  C   -1.92150197570384      0.25947384467352     -0.00031374631317
  H   -4.54024554576213     -1.82077370529984      0.00365200334536
  H   -2.24463698618436     -3.10876496642100     -0.00477662988341
  H   2.59974591572849     -2.61729660287308      0.00055603612483
  H   5.47221844656345     -0.03397938595110      0.00795130340768
  H   5.21574224075624     -1.74237224724116      0.00610046726816
  H   -0.51360428369085      3.22712199012024     -0.00809346290040
