34
Coordinates from ORCA-job ./opt_b97-3c_parallel
  N   5.98460202138009      0.95978378331509      0.71264384929917
  C   4.93016408680140      0.49939227799354      0.53467140588351
  C   3.63486692677553      0.02672529625305      0.29890108826945
  C   3.11798734270447     -1.24396917701834      0.53306761331949
  C   1.74987092640666     -1.27248896369108      0.20901376743011
  C   1.11116023903742     -2.51222999027022      0.21301180736210
  C   -0.14142034586430     -2.98957528847498     -0.08593358485950
  C   -1.40320788126891     -2.38986790174485     -0.19885795093456
  N   -2.43089061933438     -3.27176986141331     -0.39344605489315
  C   -1.79885466132005     -1.03566573074410     -0.01173227918811
  C   -3.11954526993088     -0.75328819409608      0.36133813156459
  C   -3.34377731601883      0.62424222438177      0.30402572600014
  C   -4.49120578645437      1.32805773687068      0.68199170782998
  N   -5.41543189168586      1.97007150951206      0.98180270708511
  C   -2.15792715649095      1.24102939577845     -0.16483903393667
  N   -2.07356600773021      2.60136062365311     -0.36738716267561
  C   -1.15952590127493      0.23780497766973     -0.34021090529129
  C   0.16266964153672      0.59415690235196     -0.72534827171849
  N   0.25447048601852      1.74178750024717     -1.48927005469822
  C   1.39464704265639      0.05493197480014     -0.29086130615841
  C   2.58649390428661      0.83363199704104     -0.22257697011608
  N   2.78564415110549      2.14837056864188     -0.56686147543501
  H   3.68422759155663     -2.09084893514425      0.88514552092996
  H   1.80319250655014     -3.31232718499775      0.45616296222189
  H   -0.17725119698751     -4.07233381282343     -0.14926309974781
  H   -3.27950841749607     -2.94938089617667     -0.81718753886709
  H   -2.22251859455084     -4.24637461072119     -0.50775635884174
  H   -3.84257404763739     -1.47082358265914      0.70942503763277
  H   -2.79965389489064      3.12550603388134      0.09762721989402
  H   -1.16206203049592      3.01242149361174     -0.24095733499361
  H   -0.57115262781458      1.98102306604032     -2.01379930253476
  H   1.10437875943605      1.84855114446776     -2.01943758427802
  H   2.00094599241292      2.76741039327922     -0.43643585021749
  H   3.64815751828130      2.53807158948519     -0.21658742863685
