30
Coordinates from ORCA-job ./opt_b97-3c_parallel
  N   -3.58097518630436      3.20822840973642      0.02197382095598
  C   -2.72728373601614      2.42244467389143      0.01226351562099
  C   -1.60251456078646      1.54169638172025      0.00252916784561
  C   -0.40991161679918      2.27423159936125      0.00407305014579
  C   0.95121034628511      2.01106408415706     -0.00026781027066
  C   1.73856020179294      0.87796067051656     -0.00453367272126
  C   3.14939470615913      0.96388453970118     -0.00538575533829
  C   3.92434146932923      2.12542812778782     -0.00421937281609
  N   4.60855484512361      3.06723310290088     -0.00332735432293
  C   3.70267578104464     -0.34257137426793     -0.00657138675815
  N   4.99754908282785     -0.64481673863358     -0.00728031095544
  C   2.63237154725371     -1.27220164792308     -0.00699115695242
  C   2.82041977228583     -2.65690145692641     -0.00902102062976
  N   3.08702472413896     -3.78866151642880     -0.01057270733470
  C   1.40243403821888     -0.57545158404682     -0.00630951735019
  N   0.29343170666705     -1.27012368762819     -0.00871228915231
  C   -0.99712570190856     -1.06110031435940     -0.01066775746825
  N   -1.75980266314871     -2.18076879851513     -0.01702067308507
  C   -3.03672134473022     -1.80040373276279     -0.01876708240550
  N   -4.03856503737190     -2.67278196310221     -0.02591647266950
  C   -3.18507159642492     -0.37002988334880     -0.01220630634457
  C   -4.46305688762671      0.19737161793365     -0.01494472158884
  N   -5.59547619340285      0.46577399330806     -0.01899669378802
  C   -1.89313603191184      0.16222965002401     -0.00689940232480
  H   -0.60370386386860      3.33876789743804      0.01021717431673
  H   1.53632026210359      2.92399381040331      0.00149939853889
  H   5.30080272531304     -1.60319616943683     -0.00789086385199
  H   5.69815286090404      0.07565006972760     -0.00693644995131
  H   -3.83411412620087     -3.65632106544214     -0.03067526818865
  H   -4.99611588714858     -2.36785578878357     -0.02767355235170
