32
Coordinates from ORCA-job ./opt_b97-3c_parallel
  N   -2.57559556466458     -3.80764202487439     -0.68464377010225
  C   -1.90135490460775     -2.88487817405335     -0.46139211981649
  C   -1.12117750843985     -1.73142913480619     -0.19673559590920
  C   0.17482063520342     -2.03232381361046      0.23398138579881
  C   1.35983782218017     -1.34248949230903      0.35355472206676
  C   2.53247706884458     -2.05434120623566      0.73530678839848
  N   3.64242358665120     -1.34347308812415      0.61295219997139
  C   3.25178119872629     -0.13455935078793      0.11405713204264
  N   4.21690435403234      0.81523763846104     -0.10237100620209
  C   1.85211779181541     -0.05026066568344     -0.08620887220220
  C   1.17810963111988      1.09850072783801     -0.54394862998302
  N   1.95260755200604      2.02264063946343     -1.21669438347879
  C   -0.13988505384907      1.51129865007489     -0.23478532533863
  C   -0.39010401189643      2.89409639293222     -0.07260517764936
  C   -1.68126257410763      3.08964659115452      0.39195962352298
  C   -2.30589609114379      1.84371204483582      0.46855201585377
  N   -3.64988859554619      1.67406930658186      0.82318672485495
  C   -1.38568791969292      0.81972614042974      0.08097023333980
  C   -1.83586671059388     -0.49289081768346     -0.25246629012695
  N   -3.13768612653491     -0.60640921619041     -0.59494898863970
  H   0.28914597178107     -3.08431394358882      0.47451179217981
  H   2.55848155315954     -3.08452860393458      1.06336761923558
  H   3.93762509069960      1.77314663210177      0.04264132836607
  H   5.08728140939195      0.57831143023164      0.34838275361509
  H   1.43883184447593      2.68305177718565     -1.77144515317099
  H   2.76101368475030      1.65530189923543     -1.69094091401700
  H   0.35815550324870      3.66769270448597     -0.13599815730171
  H   -2.11648864619606      4.02980780746610      0.69525432479808
  H   -4.04514966719008      2.51790980268341      1.20831295660830
  H   -3.80831095215189      0.90640802519657      1.46086909042070
  H   -3.72553468361802      0.21079976041606     -0.62044208540691
  H   -3.57018529345345     -1.50809909539227     -0.69810353122756
