27
Coordinates from ORCA-job ./opt_b97-3c_parallel
  N   -0.55300319143248     -4.56122580591423      1.22193139876670
  C   -0.90317850082107     -3.52234496491569      0.83480328350221
  C   -1.37816002355672     -2.29005745475016      0.37213806742350
  C   -2.65194014181953     -2.07462424995383     -0.22543169713553
  C   -2.74923942387946     -0.78319026345930     -0.67626433443177
  C   -1.57328428402014     -0.07235679762280     -0.29884232728376
  C   -1.54620509094289      1.30111468985694     -0.23224506462874
  C   -2.68602813014627      1.98701428201128     -0.72653329351114
  N   -3.60610758246212      2.57973681766227     -1.11770967609301
  C   -0.55317335584385      2.18880910731060      0.37562437370028
  N   -1.06157234510066      3.26614792969850      1.02702406059499
  N   0.74106294425899      2.14579630790472      0.28689353506907
  C   1.64795068219135      1.21884350367469      0.02210571293484
  C   2.95222859934134      1.51679302502198     -0.31117504587843
  C   3.65945141012536      0.28950897780077     -0.26034405017939
  N   4.95926778104731      0.10130555017857     -0.50467926104857
  N   2.89377718441041     -0.76121583041755      0.10851540473974
  C   1.63807880480384     -0.29293977223557      0.23802908851619
  N   0.67895722999372     -1.14793937658648      0.47840814665104
  C   -0.62008256431277     -1.10572741621801      0.28196417045996
  H   -3.41570410651073     -2.83139782702983     -0.30970188833664
  H   -3.62092903650430     -0.33471125007623     -1.12180389006609
  H   -0.42225880344015      4.01316558368273      1.23569294836952
  H   -2.03798019195630      3.49334837292772      0.96696137669915
  H   3.35409537032853      2.50280024173841     -0.47633111534212
  H   5.33063289680460     -0.83054803379553     -0.44567897352248
  H   5.54178631184771      0.83342935850734     -0.86361337197108
