32
Coordinates from ORCA-job ./opt_b97-3c_parallel
  N   0.78097143328331     -4.47026543906942     -0.32196540840569
  C   0.05613229806750     -3.56352195653166     -0.25808407846963
  C   -0.90020602141620     -2.53768185022095     -0.25353515983351
  C   -2.21718876188473     -2.75429488004868     -0.71562774629455
  C   -2.89108769745855     -1.55558741203507     -0.74206854080659
  C   -2.02616900110213     -0.51253446096820     -0.32904414952311
  C   -2.55784329560870      0.75112660994780     -0.03066864268478
  C   -3.98121734084835      0.79453142536114     -0.04068338586860
  N   -5.13868823946961      0.89416482335824     -0.02396342406316
  C   -1.98065513751511      2.02810615942483      0.22982197939136
  N   -2.81543001833652      2.99802965087194      0.72206120312294
  C   -0.69285967959735      2.47336088712746     -0.08923563198022
  C   0.56073258477300      1.92594722004801     -0.28795122943621
  C   1.62927490460973      2.78380876695588     -0.61855157359119
  C   2.83345898497318      2.09753982637103     -0.50281712269574
  N   4.07676957312333      2.55776706261005     -0.72104519606862
  C   2.54252999309051      0.76517744149776     -0.06203208861439
  C   3.58284101626054     -0.16358123400526      0.03413344124549
  N   4.56493122477902     -0.78840295625522      0.04328279244118
  C   1.14208067818736      0.60739746261175      0.03462467804465
  C   0.53657865278749     -0.62280194225275      0.33827995311806
  C   1.36098490433501     -1.51357085146900      1.08853329284819
  N   1.96664095705624     -2.14443229939583      1.85168648345454
  C   -0.71313722237886     -1.14468826178265     -0.03753921143662
  H   -2.60222082209530     -3.71475548008742     -1.01675650816919
  H   -3.92621240239524     -1.42538864238621     -1.00655552056179
  H   -2.50321531472709      3.95123629609347      0.69827653463046
  H   -3.81227927760077      2.87222864378244      0.68027151755948
  H   -0.66505205256202      3.55514591613770     -0.17854480203101
  H   1.52235686369756      3.83160243890462     -0.85020855167856
  H   4.85176243772376      1.91677292593377     -0.69518529608206
  H   4.21818464224860      3.41908688777443     -1.21447537725984
