25
Coordinates from ORCA-job ./opt_b97-3c_parallel
  N   -0.00203998056377     -4.43134733911979      0.00782037882124
  C   -0.00149941330305     -3.27003930070414      0.00619256797614
  C   -0.00083070741303     -1.84178834794891      0.00412459363330
  C   -1.28935514985286     -1.28655682074803      0.00361893663679
  C   -1.82874050387557     -0.01593546721846      0.00190779489361
  C   -3.24090611066277      0.13027999863343      0.00201955448761
  C   -3.57632818907435      1.47695400180556      0.00013618857971
  C   -2.39328823835066      2.21824418612156     -0.00118789606509
  C   -1.28107145144080      1.35098526863502     -0.00017667496225
  C   0.00093073160385      1.87495912766689     -0.00120598596054
  C   1.28243880266345      1.34977817120732     -0.00075525252101
  C   2.39548132946377      2.21597480939655     -0.00223880785047
  C   3.57781422107786      1.47355610864784     -0.00149990891522
  C   3.24110695353195      0.12720356887406      0.00049292070082
  C   1.82880338386056     -0.01766156439193      0.00107798347848
  C   1.28821496084880     -1.28777057065681      0.00302918065728
  H   -2.05696669095981     -2.05251023642114      0.00490727238241
  H   -3.93224423363529     -0.69871686779044      0.00337152833755
  H   -4.57615669811499      1.88124120044676     -0.00023075849417
  H   -2.31962885936490      3.29543976465965     -0.00275657894517
  H   0.00144395965704      2.96145661107009     -0.00275904790526
  H   2.32284759952728      3.29323975251036     -0.00374447693804
  H   4.57802708444363      1.87689043999360     -0.00232672108917
  H   3.93165242364046     -0.70245417360200      0.00149551778300
  H   2.05510277299318     -2.05445053506703      0.00393911947843
