30
Coordinates from ORCA-job ./opt_b97-3c_parallel
  N   3.52566638159511      3.74824979281157     -0.61415900313479
  C   3.28294998018433      2.63058398105998     -0.39758166359853
  C   2.95829586970784      1.29357224411789     -0.14723344155265
  C   3.84019268529897      0.28240813934104      0.23222228957188
  C   3.12665342405112     -0.89403194950515      0.43340282984190
  C   1.75782885825824     -0.68247450978211      0.17593634331562
  C   0.86455697253348     -1.77311125300505      0.10105793598886
  C   1.51391972750104     -3.02114893665400      0.32564592979559
  N   2.01226471141144     -4.05533716029020      0.50632102772030
  C   -0.51777167309763     -1.94965552891836     -0.21667077967502
  N   -0.87203703115938     -3.20447887899646     -0.61045032053406
  C   -1.61231405252383     -1.03329280730138     -0.07369414029662
  C   -2.88530808396549     -1.68072877011985     -0.08873185279962
  N   -3.84903480981921     -2.32687043922933     -0.14040552301308
  C   -1.73597071948250      0.34830616718642      0.09061673296097
  N   -2.99392098192351      0.81225282285128      0.29665823292528
  C   -2.93725347548719      2.15062479771189      0.24286973878867
  N   -4.03271838202091      2.89504768468076      0.45076963788932
  C   -1.62187207118238      2.61329779814009     -0.02268447307469
  C   -0.81588558502388      1.48822419909234     -0.10038141434297
  C   0.56448465060950      1.60845826254626     -0.28062350893718
  C   1.62358872608159      0.75770465874905     -0.15095826297488
  H   4.90530431228195      0.40122443090664      0.34865305093233
  H   3.56803756415853     -1.84114566562041      0.69028723459807
  H   -1.83824413528429     -3.48129933934405     -0.58456106221560
  H   -0.20029565894599     -3.94988952284784     -0.56387851665499
  H   -4.03176817621052      3.88143481482504      0.27448846084721
  H   -4.91851932386682      2.42897668566191      0.53798384577019
  H   -1.29254402771038      3.63576654737755     -0.11664798783721
  H   0.86482934323086      2.63315046705449     -0.47462716270436
