34
Coordinates from ORCA-job ./opt_b97-3c_parallel
  N   -5.43025616911759     -0.77026539092086     -0.54143145873899
  C   -4.30142455752656     -0.56050366494237     -0.33473867327931
  C   -2.95099229855360     -0.31296472882482     -0.10167678184039
  C   -2.38555192777242      0.93689500866716      0.22628748756564
  N   -3.12835284258712      2.06250598764882      0.39779432607586
  C   -0.96662887007274      0.79350408363530      0.26715957982319
  C   -0.13337271085534      1.91665905925835      0.22975216960153
  N   -0.59572994715969      3.07742667250243      0.85485871737469
  N   0.94664683506827      2.14208764541649     -0.51034033898786
  C   1.98994975184973      1.43142617255489     -0.82848263249053
  C   2.49847884372508      0.24287694446761     -0.30394116478655
  C   3.90604886080914      0.00916028444834     -0.27538679618290
  N   4.88255675810862      0.79232767633738     -0.84501520747447
  C   4.15347322279782     -1.16765927822068      0.45241560444815
  C   2.93238159666754     -1.69496588045019      0.83487136724291
  C   1.86534258792272     -0.87464105558533      0.38011323807856
  C   0.53232480383826     -1.33843537141567      0.31143587339640
  N   0.36211278952555     -2.70596585184710      0.49211677893978
  C   -0.65907333060896     -0.62678378074620      0.03587391036606
  C   -1.90635181112512     -1.26190706927364     -0.21541435159154
  N   -2.16922138597334     -2.58108105702050     -0.46124467683565
  H   -2.62144384289091      2.93444104380994      0.33584801287006
  H   -4.03797710092233      2.05878386449669     -0.03542252612388
  H   -0.92278063419177      2.94104138606604      1.79850887786574
  H   0.06022292470862      3.83855058167989      0.76906724247258
  H   2.62572742211230      1.93367626144922     -1.55787235402036
  H   4.67580792729178      1.76915746646659     -0.95466264948351
  H   5.81080293147253      0.64347248656173     -0.48834179193245
  H   5.12682178219336     -1.56954203384380      0.68880864137524
  H   2.83562210391206     -2.59309086454457      1.42719452355692
  H   -0.41141534343494     -2.99183659191088      1.07189249756038
  H   1.19971774163047     -3.23454127065811      0.64980063079787
  H   -3.06669692681324     -2.76629720486946     -0.88026179911724
  H   -1.40864326052832     -3.11632578409260     -0.84770567332588
