27
Coordinates from ORCA-job ./opt_b97-3c_parallel
  N   -2.97724064507541      3.42958527715120      0.26775546391370
  C   -2.28523723884840      2.49574554555756      0.21435503636389
  C   -1.39771778231387      1.38990239579230      0.13195042460485
  C   -2.04829878040562      0.16829796562042      0.25669675339772
  C   -1.72876566370275     -1.17068081289138      0.09646678943488
  C   -2.75291626900333     -2.15151177260484      0.12351279245935
  N   -2.30519597216287     -3.39160256266538     -0.11813827047807
  C   -0.97549588671935     -3.25801016491445     -0.29733608193375
  C   -0.52975635564867     -1.92601147327023     -0.18764697956013
  C   0.82054041750044     -1.60033011421209     -0.21144277017690
  C   1.51219810457522     -0.42720019808279     -0.04475309204021
  C   2.94961522540500     -0.42985180290140      0.09170687810200
  N   3.78592992393010     -1.49217525517267      0.04996682838606
  N   3.45536306943207      0.80213507566561      0.26559695717755
  C   2.40301384190785      1.63251870151598      0.20496513190061
  C   1.16328245946356      0.99450452354299      0.02204165565418
  C   -0.02232140448163      1.75575561017604     -0.11852972873276
  N   0.15034939441478      3.05062804585830     -0.46483630513227
  H   -3.10532797512425      0.30273957287184      0.46256665361913
  H   -3.80355717520214     -1.96028936031789      0.29641124419206
  H   -0.35166616366234     -4.12126554470027     -0.48768446899168
  H   1.44846137821694     -2.47508095562942     -0.35903883601071
  H   4.72960684761829     -1.30199301949512      0.34103814336639
  H   3.44282636999481     -2.40601743993431      0.28031364014279
  H   2.56522615052249      2.68525530306454      0.38626253901073
  H   -0.61280197155406      3.70489893819167     -0.44380156081511
  H   1.03482993342312      3.37995120738383     -0.79628021495430
