31
Coordinates from ORCA-job ./opt_b97-3c_parallel
  N   4.87027440539497     -0.24204189139617      1.06670842766846
  C   3.82269800954122     -0.61423216853706      0.72543705062328
  C   2.56145864825523     -1.11892224315153      0.38008323467333
  C   2.23324810075795     -2.50812583608592      0.43096125247108
  C   0.92210070217127     -2.66386533942379      0.08428551612922
  C   0.33234632696655     -1.37481836655614     -0.11743600035881
  C   -1.03479399107055     -1.25734116980219     -0.35324258248801
  C   -1.67148929733950     -2.48517826404131     -0.72317169207674
  N   -2.21102562704759     -3.46016451635529     -1.04484470096871
  C   -1.94915263331370     -0.19581427349476     -0.15450531734994
  C   -3.31817620697669     -0.41775610504753     -0.12076205635500
  C   -3.98344674512443      0.73133758118199      0.39323504931263
  N   -5.33006876864729      0.83985877401594      0.52578309106352
  C   -3.02643908723484      1.69862978220224      0.66199814539075
  C   -1.74518157036161      1.20740553714195      0.28948187295299
  C   -0.69369385667313      2.07878105661523      0.21287318937665
  C   0.61451689594559      2.04841081349947     -0.33089784310261
  N   1.07098249284952      3.29964404007954     -0.67813348304740
  C   1.50653334280928      0.96735338482653     -0.42141994553817
  C   2.74222120701619      1.31273175415686     -1.02780550862369
  N   3.68111179799279      1.67539840126589     -1.61054383410191
  C   1.41697342364942     -0.38304397216954      0.02899727811996
  H   2.91973854346971     -3.28405584158028      0.72728162243811
  H   0.37787219853086     -3.59220640506964      0.06538052600784
  H   -3.80567660222262     -1.34478180418392     -0.37610167290273
  H   -5.69763400267913      1.56056877865074      1.12034461204846
  H   -5.88222826126237      0.00196559883612      0.49074220024365
  H   -3.21601629031261      2.70621121203118      0.99732431978460
  H   -0.96248311800170      3.08090292009728      0.53101946493349
  H   1.96794312215190      3.37119389155741     -1.12930943002571
  H   0.39268407866294      3.96439310653672     -1.00283483029861
