30
Coordinates from ORCA-job ./opt_b97-3c_parallel
  N   0.81844492371682     -4.41342045983593      0.49149444057427
  C   0.72526803728227     -3.26605480371424      0.31597011378763
  C   0.58939171085972     -1.86696419391731      0.10488075701240
  C   1.83011505763925     -1.25597662251024     -0.07183777950540
  C   2.30962531823229      0.03639466059518     -0.15221611458417
  C   3.70189891330347      0.28673815677241     -0.32651777205165
  N   4.01132324613799      1.58245306051303     -0.26934923195661
  C   2.83223765091847      2.21598504082468     -0.03734966491423
  C   1.73937848592189      1.34242911729537      0.04317766038233
  C   0.43785837519300      1.80311830850386      0.26646032532293
  C   -0.80084894519270      1.22967732742340      0.23542398156263
  C   -1.95366198228870      2.10460992743804      0.27852313805304
  N   -1.92822664780218      3.42599594018681      0.60810251282416
  C   -3.06833333895529      1.42432024040785     -0.17538748780202
  C   -2.70342790120773      0.09643502499479     -0.43128018556963
  N   -3.60815591852070     -0.81390008938617     -0.90090795528249
  C   -1.31793994856778     -0.11712152389074     -0.10617070625511
  C   -0.77855072460769     -1.40393131887431      0.02749478312841
  N   -1.70110514611303     -2.43728767399266      0.03336687874910
  H   2.63114182754439     -1.98686940884204     -0.12134249205024
  H   4.46223015052409     -0.46795531261189     -0.48010217160096
  H   2.79576662349466      3.29249997688333      0.06503374553398
  H   0.42286707603827      2.87894322242326      0.41178360747016
  H   -2.81910139219905      3.87073375154636      0.74083696628959
  H   -1.23323504463160      3.72780898164398      1.26742960076673
  H   -4.05742189065995      1.83465834459596     -0.31144328598311
  H   -3.23004347691192     -1.63686063160920     -1.34318158674872
  H   -4.40507166264356     -0.42097541771183     -1.37302987518577
  H   -2.56014706046855     -2.26524057944337      0.52814545618637
  H   -1.33887902473517     -3.36367849930679      0.19062374344630
