31
Coordinates from ORCA-job ./opt_b97-3c_parallel
  N   4.45439185514524      1.43817464187861      1.96176416342444
  C   3.78448542600253      0.68969275783433      1.37691650652075
  C   2.99743456024679     -0.28031191999133      0.74186401240838
  C   3.37288839766427     -1.63035341094660      0.63075798629828
  C   2.36217629030392     -2.32924022447742     -0.00787991572398
  C   1.27032470262156     -1.46362116036283     -0.23823434716358
  C   0.00509214776361     -1.97729722305324     -0.54607838210163
  C   0.00710583172206     -3.32123351140048     -1.03497605778943
  N   0.00860042628604     -4.39772807512707     -1.46509435379406
  C   -1.26079978538706     -1.47051281494354     -0.22969406664446
  C   -2.34635097094261     -2.34205180419794      0.00801716455819
  C   -3.35648192446489     -1.64866613811452      0.65352743914456
  C   -2.98761087905828     -0.29660136952394      0.76215080967914
  C   -3.77553454794131      0.66913310842696      1.40260058637820
  N   -4.44508186759112      1.41413191460266      1.99228032545322
  C   -1.70246467079414     -0.11907411041869      0.16119854555469
  C   -1.26757430764593      1.11320619132153     -0.34000351486527
  C   -2.25444405364799      2.13066572667257     -0.45925697582939
  N   -3.00296412983654      2.99391955896420     -0.66923282276654
  C   -0.00553893916649      1.53617231238780     -0.86561674812558
  N   -0.01130960335957      2.56082148146661     -1.74589279361548
  C   1.26230061797504      1.12010814371493     -0.34850780501422
  C   2.24270965970013      2.14301714608509     -0.47425140004330
  N   2.98480642984882      3.01062348273495     -0.68905868410198
  C   1.70728342302174     -0.10978741085187      0.14965768736282
  H   4.29341262725519     -2.04241606748289      1.00939634048447
  H   2.35294015348648     -3.39005254461078     -0.19242142408790
  H   -2.33258308797829     -3.40279942016300     -0.17661869873068
  H   -4.27216747886976     -2.06572312984762      1.03839513304512
  H   0.83975190434027      3.06256167274799     -1.93626160605059
  H   -0.86641547009931      3.05778666047566     -1.93057748046414
