27
Coordinates from ORCA-job ./opt_b97-3c_parallel
  N   4.87405006711982     -0.53726932461234     -0.64731003333852
  C   3.88406499671730      0.05070471361369     -0.47795367606573
  C   2.67453473373479      0.72277078519675     -0.27052372391291
  C   2.50131157838394      2.10409033115314     -0.17339473711356
  C   1.15907034118144      2.36689954097388      0.07425706489051
  C   0.42983853328692      1.16070162595945      0.12063111276547
  C   -0.97369174885256      1.15651028137026      0.23922016725353
  C   -1.52558505651841      2.45632040702424      0.49041133100480
  N   -1.97264946375583      3.50288331622069      0.71117852798637
  C   -1.93942586335038      0.16380782917499      0.07731717722287
  C   -3.30809682294355      0.47699870357792     -0.05161621345530
  C   -4.02142277382199     -0.66436930701913     -0.41972425613986
  C   -3.15173254969145     -1.74548312732246     -0.49235353223502
  C   -1.84435965626063     -1.32402834311650     -0.16380908459009
  N   -0.92248407499407     -2.24068965929427      0.00903147185900
  C   0.36618845850714     -2.25847531506077      0.28739870609918
  N   0.80826039325209     -3.47661417782826      0.74986040448847
  C   1.37242360477118     -1.28980115888750      0.07302955030664
  C   1.40317439799548      0.07313702453310     -0.06866210880827
  H   3.28426142574347      2.83740655517746     -0.27452172533643
  H   0.73019274788795      3.34890738424263      0.17835811595575
  H   -3.72659106801620      1.46257410082136      0.06440292150045
  H   -5.08372160187631     -0.69546200396983     -0.60579577628606
  H   -3.40079145946317     -2.77451794397370     -0.69103451967051
  H   1.78984880871880     -3.68790505289465      0.71368119799629
  H   0.18464324817999     -4.25034260363801      0.59537484458974
  H   2.35870931266698     -1.73633901432461     -0.00568137916743
