29
Coordinates from ORCA-job ./opt_b97-3c_parallel
  N   -4.25701986556768     -2.58462665431916     -0.02390257423399
  C   -3.25770953102144     -1.99517778805535     -0.01924988255306
  C   -1.96188787401547     -1.38840056141224     -0.01016366992318
  C   -0.92947272402282     -2.34882164020969      0.00914783645728
  C   0.44481269066780     -2.34704567438131      0.01800542136491
  C   1.47118539081739     -1.39477214248120      0.01837222473598
  C   2.80377138311468     -1.80519861398699      0.02547232617919
  C   3.65402509792400     -0.68399255949251      0.02845188679213
  N   5.00293248156156     -0.69341384306906      0.07585501955566
  C   2.84545226403697      0.47346716347873      0.02531195398213
  C   3.34725064560333      1.77410915340791      0.01126280692773
  N   3.80701933758071      2.84497575554556     -0.00400920877339
  C   1.47071191148582      0.08140264734847      0.01759468037488
  C   0.48071915080308      1.03115600393553      0.00729077836347
  C   -0.91903880950836      1.04080678516966     -0.00869043918731
  C   -1.60798845262929      2.24844171559583     -0.02012821730569
  C   -2.98538444938209      1.93404473165416     -0.03801705453509
  N   -4.02251913049638      2.79148760945627     -0.08787001430155
  N   -3.19801536523080      0.60720051175078     -0.03982139949445
  C   -1.98518519380133      0.00865581037335     -0.02296840274528
  H   -1.33142470516669     -3.35360736923178      0.01419548290842
  H   0.84462798733206     -3.35558179032095      0.02624405692014
  H   3.13022509465709     -2.83370134822690      0.03526408674619
  H   5.49781497677816     -1.53883944030012     -0.13947432578734
  H   5.50111234923022      0.16365222570719     -0.09037745995584
  H   0.88163579183356      2.04035711522706      0.01239697708738
  H   -1.16120884579205      3.23003328326116     -0.02120883679783
  H   -3.88683866693963      3.76125666294534      0.12675801296102
  H   -4.94272388935238      2.41216660733012      0.05129871623760
