27
Coordinates from ORCA-job ./opt_b97-3c_parallel
  N   -4.06999268462567      2.22986749565252      0.26641187260521
  C   -2.93668906507649      1.99421829382532      0.15958597127021
  C   -1.55077490078536      1.88704856701227     -0.02692585659154
  C   -0.82293320943237      2.97366360142940     -0.58508881189815
  C   0.48285868353812      2.60651844287726     -0.76010812285761
  C   0.66490938913541      1.27758017701928     -0.27835013588908
  C   1.94225667512811      0.82442995061639      0.01369512002680
  C   3.01797735255741      1.70839145576254     -0.26488497378618
  N   3.92795812342485      2.40341031436330     -0.46326478678168
  C   2.39231686850909     -0.43060300149890      0.58250869506435
  N   3.43114277948435     -0.38567533395424      1.44744430446882
  N   2.00697715967376     -1.61718593114420      0.20044838313213
  C   0.87844725047100     -2.13738220161786     -0.23376107406729
  C   0.79698161304789     -3.43963697567815     -0.75538947389656
  C   -0.54907522999696     -3.78316715149704     -0.73166653853210
  N   -1.33876453204130     -2.80962989039165     -0.22123699981638
  C   -0.53915919936819     -1.75230146243511      0.02300024269761
  C   -1.14151696763681     -0.53048800328289      0.35424106778840
  C   -2.46921201271447     -0.68865623161895      0.85523138470926
  N   -3.49213117912568     -0.83774194738254      1.37960554949081
  C   -0.68215989220703      0.77758632376553      0.12409200895801
  H   -1.26224633820713      3.92717075542544     -0.82820899311896
  H   1.27690704590411      3.24246662491861     -1.11223469877250
  H   3.93388460005037     -1.24204654932449      1.60783086236362
  H   3.92174728393048      0.47556773476818      1.61277476877523
  H   1.63920922603291     -4.05940557978350     -1.01263495916575
  H   -0.99123666156953     -4.71424455482664     -1.05368124717585
