28
Coordinates from ORCA-job ./opt_b97-3c_parallel
  N   3.13540095321978      4.03922670681649     -0.00180107875383
  C   2.39701393236593      3.14513527668903     -0.00149797584217
  C   1.45120728729508      2.06831335106668     -0.00123934514078
  C   0.13801226564639      2.55798336982818     -0.00136262526700
  C   -1.13077125326706      2.00349235053114     -0.00117803278759
  C   -1.67591841989169      0.72949127174092     -0.00067609692786
  C   -3.09987534239562      0.56662841015288     -0.00051115931006
  C   -4.03133866579227      1.61701096580351     -0.00092484847809
  N   -4.78705859726774      2.49934066474518     -0.00131712880802
  C   -3.41549930714318     -0.78997568549666      0.00011934031705
  C   -2.21712245020349     -1.51315693342693      0.00029934503456
  C   -2.12967520542761     -2.91435257280102      0.00090509861703
  N   -2.05824549972154     -4.07378916680116      0.00141030851600
  C   -1.11129497301881     -0.61091064957112     -0.00019182670360
  C   0.18490292032155     -1.10685395383347     -0.00024538025416
  C   1.45721000844797     -0.56886342402001     -0.00062049345864
  C   2.57887110195665     -1.45542065271378     -0.00056649719383
  C   2.51264775808828     -2.85660796412184     -0.00030031591773
  N   2.46629880239894     -4.01775049301658     -0.00013555733188
  C   3.76616259580217     -0.70966712705359     -0.00085060227839
  C   3.43445531916927      0.63425194476122     -0.00107495194906
  C   2.02936089867669      0.78861796125554     -0.00097199877430
  H   0.10745514667499      3.63901463874859     -0.00168249697121
  H   -1.89597472657553      2.77212145868750     -0.00143681921288
  H   -4.40618092331361     -1.21085831786640      0.00039826869304
  H   0.20269378978464     -2.19265660362336      0.00008083236238
  H   4.76003678988372     -1.12490068115551     -0.00088540977191
  H   4.14039026348610      1.44752745627458     -0.00131739140709
