32
Coordinates from ORCA-job ./opt_b97-3c_parallel
  N   1.83853467902039      4.28195946492708     -0.02215938817611
  C   1.30542507842412      3.24633082388884     -0.00068232421483
  C   0.68058977231490      1.97218856002714      0.00312439991664
  C   -0.67982793471892      2.06119370642541      0.30294843090721
  C   -1.76594020657818      1.21373752949252      0.21637053720656
  C   -3.08472813318729      1.71954930472619      0.35896821686589
  N   -4.03355159699286      0.81266645523712      0.13222365500795
  C   -3.36064201575661     -0.33820078522463     -0.15044890308316
  N   -4.06674016539990     -1.47427624627925     -0.39690899159429
  C   -1.94787326458971     -0.18296042949048     -0.09458513787280
  C   -1.07354553271627     -1.26077849036947     -0.07038095972694
  C   0.29110365218687     -1.39643302425029      0.03123503985831
  C   0.83721774914598     -2.71618160559720      0.23658060525682
  N   0.10190812641872     -3.85432860574127      0.42642843453194
  C   2.21826545883702     -2.67341270163892      0.16932475213736
  C   2.60447634252081     -1.34934778406008     -0.06917537428730
  N   3.91751462543235     -0.98790058888709     -0.14100685728028
  C   1.43896217295196     -0.49760832686320     -0.15669022113061
  C   1.55665262773220      0.88458934934197     -0.35829534129022
  N   2.78316413969416      1.30227614292156     -0.87487359566146
  H   -0.97041836807950      3.07173577233385      0.57014179893219
  H   -3.34164893300325      2.74475757344599      0.59022005277773
  H   -3.66531964288949     -2.14762834785143     -1.02475810718745
  H   -5.05273691042771     -1.32195929687661     -0.52997492861496
  H   -1.59387502255570     -2.21446664167209     -0.09017695145745
  H   0.62250135890996     -4.66064056250855      0.72523294393315
  H   -0.76609071434943     -3.75541280824236      0.92331866339213
  H   2.89385079452035     -3.50161443562809      0.32003331128212
  H   4.11712669485093     -0.00910847558491      0.00928064937404
  H   4.56335317650329     -1.62447362057149      0.29551891921961
  H   3.12537291588315      0.74483862028957     -1.64036269607531
  H   2.86711293509660      2.28951129778185     -1.05916090194542
