30
Coordinates from ORCA-job ./opt_b97-3c_parallel
  N   4.67261016046292     -0.57978855122030      0.29259166689100
  C   3.53537894596941     -0.36638534615702      0.16694347575229
  C   2.13863445286151     -0.16137886124701      0.02652718666809
  C   1.79859337975305      1.15796223524134     -0.26992616165547
  C   0.65389112309462      1.93525828381047     -0.27459264541032
  C   0.80176165324558      3.32282319289868     -0.58634312083396
  C   -0.39136635918793      3.97603724046180     -0.36734785680482
  C   -1.31314435953425      3.03339134135542      0.11638868509966
  C   -0.71813183976715      1.76092153166604      0.17598014012735
  C   -1.46886638530722      0.60734863453569      0.53063248814219
  N   -2.65831794241832      0.84808245125864      1.17092089263548
  C   -1.23955772665768     -0.72693036804046      0.14102071367957
  C   -2.31007602419043     -1.63615602184264     -0.12717203703277
  N   -3.66851245165519     -1.43114435119339     -0.01026010949296
  N   -1.87538038200342     -2.82363060069454     -0.58696775452554
  C   -0.53854861657564     -2.76023674404738     -0.55895458097963
  C   -0.04179715671447     -1.50870623129411     -0.14953154826443
  C   1.34315698833367     -1.34598100336394      0.10454521011339
  N   2.02725994285175     -2.48510693064412      0.35840178236107
  H   2.67926290765497      1.74832511617857     -0.49832455424651
  H   1.72887795858588      3.76736274534736     -0.91475972696723
  H   -0.59363258186625      5.02179664400098     -0.53561353525961
  H   -2.35083012728041      3.25619721044150      0.31287787005902
  H   -3.07764027944194      0.07458965776756      1.65909148614592
  H   -2.74099266878235      1.72623848084063      1.64823238416524
  H   -4.18482080530192     -2.12272647166139     -0.53277917956022
  H   -3.98470020146018     -0.49045234847330     -0.19270395325608
  H   0.04517177159579     -3.59860598727201     -0.90955606039911
  H   3.03218034529956     -2.49980473224790      0.38505362491837
  H   1.53712658323283     -3.32903821550702      0.57921083182692
