31
Coordinates from ORCA-job ./opt_b97-3c_parallel
  N   2.47346338958336     -3.84915747617206     -0.22991510142263
  C   1.81754022822053     -2.89640424950887     -0.13875184550039
  C   0.90345937431237     -1.80065162249937     -0.05507771519174
  C   -0.41564898582071     -2.28103650149452     -0.04054114813812
  C   -1.69570669105859     -1.75510408974016      0.00578138179501
  C   -2.24057113266693     -0.48684470942766      0.01174761809757
  C   -3.63369063880025     -0.27909171072372      0.04319338424996
  C   -4.63494214593769     -1.25001570589117      0.09519411138062
  N   -5.50795166924057     -2.01950804986352      0.13826371844071
  C   -3.90158930146373      1.12474830515621      0.00334374661533
  N   -5.12710244408510      1.65865645957810      0.01952556582782
  C   -2.67654853825746      1.80230512377413     -0.05152097773614
  C   -1.62927452903709      0.87603414919545     -0.04419745103390
  N   -0.39202625485519      1.32465079959833     -0.06987472097661
  C   0.82182015972118      0.84162438614133     -0.04217223980147
  C   1.87917339647519      1.79583473761991     -0.03842168494918
  C   1.73384238846136      3.18464840425849     -0.06471237004994
  N   1.69834892758440      4.34716847211456     -0.08446422125630
  C   3.11229913292112      1.13245147862723      0.02227174807781
  N   4.32067151591074      1.68849231604345      0.06315447815594
  C   2.85802456697335     -0.27539233687547      0.04053803079713
  C   3.95875841969016     -1.13520395253903      0.13449062539904
  N   4.99534904076310     -1.65608755649807      0.22864524797823
  C   1.46877906831738     -0.51341610374422     -0.00641760801672
  H   -0.43642572170483     -3.36239429371139     -0.06801055045785
  H   -2.44990134379471     -2.53405152889814      0.03058765242873
  H   -5.26309227887824      2.65130808404682     -0.01630653297312
  H   -5.94410180906159      1.07509309607749      0.05838333832617
  H   -2.52778612990876      2.86855919221243     -0.08496838253270
  H   4.42749067167798      2.68717992585255      0.05527785338360
  H   5.14685110925925      1.11740016739088      0.11726441118314
