29
Coordinates from ORCA-job ./opt_b97-3c_parallel
  N   4.27082896083140      2.69776259382438      1.47420045655243
  C   3.79201596160501      1.69656169072556      1.12802430163995
  C   3.20823889839694      0.49888513314187      0.70349789373924
  C   3.82219468206173     -0.75023556947570      0.58800493614005
  C   2.93004076268268     -1.65519150941500      0.00616910540159
  C   1.69282278510876     -1.02731230948718     -0.20606252763182
  C   0.51783675952438     -1.71848469761128     -0.52736849729423
  C   0.74864242312673     -3.05238071483609     -0.99143979939300
  N   0.95932628186579     -4.11960641214400     -1.39199664130149
  C   -0.82855531231980     -1.40184451560354     -0.29855296553289
  C   -1.79016719081802     -2.43560663793847     -0.21768912313970
  C   -2.94466175153266     -1.95153703628419      0.36801094338052
  C   -2.79381408096201     -0.57618023736058      0.61879820768574
  C   -3.77419742227987      0.19079866332659      1.26234939513152
  N   -4.60985602160982      0.74582300713096      1.84969207415341
  C   -1.51177180386796     -0.15770098772493      0.14666381200329
  C   -1.22749989262652      1.17338208113895     -0.15967297425221
  C   -2.27707838975868      2.12630888032086     -0.11001466535587
  N   -3.06512398229906      2.97773745639356     -0.18010982844610
  C   0.01320861511113      1.76565073079989     -0.59525136043703
  N   -0.03398026010098      2.85561750615439     -1.39059802242806
  N   1.20849739720153      1.46343304856615     -0.13744756082768
  C   1.87909844902083      0.39548459746937      0.16654829639151
  H   4.83269924374879     -0.97157402446442      0.88981635131125
  H   3.13625775691765     -2.69504887370102     -0.18386293966165
  H   -1.60326845551324     -3.46588050490415     -0.46782876017479
  H   -3.81910861512855     -2.52601876443430      0.62511112945997
  H   0.79196686246722      3.42886821670484     -1.42830067924361
  H   -0.91304671085377      3.29936783938860     -1.59439659667381
