30
Coordinates from ORCA-job ./opt_b97-3c_parallel
  N   0.09622183255168      4.55953619700402     -0.74340611110629
  C   -0.39715998521045      3.54589146885872     -0.45911993901945
  C   -1.09938900083180      2.36019487912650     -0.20047683700303
  C   -2.51253808645223      2.29745039948129     -0.27994185828712
  C   -2.91828111541072      1.00125811305374     -0.09059817201587
  C   -1.78064282181899      0.15715347958321      0.02876898142403
  C   -1.97384689429367     -1.22355731828923      0.17618182875399
  C   -3.31207197293277     -1.56592564005577      0.52971499107540
  N   -4.37505928338346     -1.91370227110692      0.84361758621249
  C   -1.17236067077772     -2.37513284117652     -0.10361418641714
  N   -1.83697313741573     -3.58425347695768     -0.17221234111112
  C   0.18356725704773     -2.46745315160253     -0.41013912586481
  C   1.31276995271680     -1.68172911062881     -0.24757731554661
  C   2.58871397197661     -2.23938699770179     -0.40000874881645
  C   3.50609406547066     -1.27570743797087      0.04481597296065
  N   4.84378919223874     -1.37695980517580      0.14874953478602
  N   2.88971004123298     -0.13562697455524      0.43628824591309
  C   1.56928981841583     -0.30835581681011      0.24346586705948
  C   0.75299079136469      0.82617228800753      0.36361688970551
  C   1.45074111187689      1.94564165280988      0.91370718208812
  N   1.97256205584816      2.82465405670091      1.46132203982378
  C   -0.59074734571313      1.05715573063756      0.01264734286413
  H   -3.14596002719878      3.14366289334746     -0.49016582315228
  H   -3.93623187941941      0.65414198442973     -0.11987258595383
  H   -1.30469441970379     -4.41054141808265      0.03020322492269
  H   -2.79230090346177     -3.63097352495757      0.13697105742953
  H   0.44263417097731     -3.46205264438117     -0.75887701662836
  H   2.80184390206857     -3.24866520757860     -0.71401172269413
  H   5.33746026218351     -2.09268830762675     -0.35046774594622
  H   5.35157115005396     -0.53876715498229      0.37252714354408
