25
Coordinates from ORCA-job ./opt_b97-3c_parallel
  N   -5.44149172498523      0.34887676792061      0.58048383372287
  C   -4.36890438150535     -0.06390562367123      0.41334892098980
  C   -3.09020941216467     -0.60443170187743      0.21788441699344
  C   -2.77919815766454     -1.96791538919689      0.11960732601901
  C   -1.42516336862299     -2.09865961165290     -0.13818519399028
  C   -0.80200725191062     -0.82876561035232     -0.16612904949174
  C   0.59018642792860     -0.71784820596843     -0.21246202827793
  C   1.23956660922078     -1.96333478571009     -0.49116786667292
  N   1.69967206813851     -2.98418893137214     -0.79124121193455
  C   1.45927469858298      0.37875628772449     -0.02061996080418
  C   2.85800035806248      0.26105439483389      0.18124165093992
  C   3.67089600370966     -0.86090354730265      0.39534337660439
  N   4.43148596280631     -1.71047470501579      0.61874775580167
  C   3.36539792924641      1.57918292131435      0.24990684902176
  N   2.42147836407938      2.49159057656340      0.08048553584345
  C   1.23060377800319      1.82912421032092     -0.05878033456271
  C   0.13161473714405      2.64783660765414     -0.26181755592007
  C   -1.24961500358816      2.48235582560165     -0.30287520859881
  N   -2.06245223402689      1.46814156068803     -0.08919057705064
  C   -1.91028098250170      0.17218369419575      0.01819146029871
  H   -3.48508158626053     -2.77555897399496      0.22043903233653
  H   -0.91037992946832     -3.03696487601615     -0.25340377841035
  H   4.39585443986134      1.84839114129870      0.42384393588438
  H   0.43572450807058      3.68465136457987     -0.33911908910026
  H   -1.78847965885723      3.41134497343692     -0.46145220774216
