30
Coordinates from ORCA-job ./opt_b97-3c_parallel
  N   -3.75087664496359     -3.08554885408518     -0.23744493195842
  C   -3.31398157235360     -2.00745096222166     -0.17655155482479
  C   -2.90392981015408     -0.67770705914645     -0.09154145642248
  C   -3.80095830228460      0.41594474691878      0.08321352211493
  N   -5.13923602659118      0.29186413883121      0.11351770415662
  C   -3.05488530486829      1.59263056230628      0.17541765260673
  C   -1.68549726959778      1.30430730934467      0.05408723623171
  C   -0.75608480742088      2.31976167519314      0.00587693675521
  C   0.64296369689751      2.39697375923956     -0.13373350269477
  N   1.13874068636095      3.65987028813756     -0.36639388135240
  N   1.62155673502563      1.50318554649920     -0.05517052401574
  C   1.70573344895088      0.20425813421835     -0.01373387142621
  C   2.98185783600930     -0.39661584934378      0.10396651340226
  C   4.20490377368592      0.26482874936390      0.20493818258587
  N   5.26038602726351      0.74995890527273      0.29272252218522
  C   2.84299582608336     -1.80907068834192      0.02956421574200
  N   3.86280012971768     -2.67266784232933      0.10676759618561
  C   1.48292878152091     -2.12644904960930     -0.12022492462556
  C   0.72019039074779     -0.96023730857571     -0.12898156988807
  N   -0.59288465852190     -1.05359066671835     -0.18271796385042
  C   -1.57562459266845     -0.19378452409536     -0.09476102121908
  H   -5.71335903359105      1.06195333614930      0.40120486206551
  H   -5.55023059489483     -0.62428609739025      0.15699548418944
  H   -3.46612145280720      2.58465143404676      0.28068924549075
  H   -1.21927466255962      3.30008649412028      0.06042642075301
  H   2.12679812257699      3.76659660052285     -0.21424130102896
  H   0.56601738884970      4.46389536700117     -0.18525465331384
  H   4.80899715467100     -2.33948220101991      0.16446250052404
  H   3.72040187767887     -3.65514299906856     -0.03283155566379
  H   1.05794072243698     -3.11462865322000     -0.18130627650436
