27
Coordinates from ORCA-job ./opt_b97-3c_parallel
  N   1.79121422680612     -4.32694485411059     -0.00618342496759
  C   1.56338850307278     -3.18803401008688     -0.00465671657564
  C   1.26396881103385     -1.79283374685408     -0.00262262312236
  C   2.39325910485842     -0.96860990591517     -0.00106072548728
  C   2.60387538753464      0.39629038888419      0.00113125488156
  C   3.93176979953754      0.90765767295109      0.00218143000023
  N   3.98678291815935      2.24312751350150      0.00470829352383
  C   2.69895425749364      2.64932574312082      0.00564105652625
  C   1.77350785426565      1.58659379807774      0.00343706033883
  C   0.40671709453864      1.83496678625656      0.00378795892238
  C   -0.71877772214996      1.03591650858963      0.00151098258133
  C   -1.98762550510606      1.64202619917604      0.00239590545977
  C   -2.99118838914019      0.67877381361251     -0.00089308475352
  C   -4.37892078764245      0.86473873555199     -0.00170612753060
  N   -5.53950246552843      0.94140413087083     -0.00244344015768
  C   -2.36955378360928     -0.60089790654607     -0.00388479868777
  N   -3.06329498412564     -1.74317731242196     -0.00701529496967
  C   -0.93828669706270     -0.42237093935732     -0.00219622378157
  C   -0.12034421783354     -1.52576218291839     -0.00329680950377
  H   3.31911258877067     -1.53374510611787     -0.00181427291981
  H   4.83329188774716      0.30992739064270      0.00110817662448
  H   2.45078732638895      3.70200986254151      0.00771298464763
  H   0.17132828771676      2.89517334532461      0.00628006162182
  H   -2.15763120174278      2.70675938890178      0.00496767080807
  H   -2.62565082459202     -2.64457008040592     -0.01253093447949
  H   -4.06782466410260     -1.72173797771817     -0.00945958024311
  H   -0.66980345668852     -2.46023961525103     -0.00502387665630
