27
Coordinates from ORCA-job ./opt_b97-3c_parallel
  N   -0.09001713034422     -4.88697328513535     -0.00567909857384
  C   -0.06844518394587     -3.72535998184450     -0.00408089049321
  C   -0.04214406798256     -2.29960605037678     -0.00206280523058
  C   -1.30905364015287     -1.70784023083142      0.11373102079268
  C   -1.79676265966912     -0.41542183951678      0.09520551041923
  C   -3.20045482019627     -0.21152369750173      0.16564662575546
  N   -3.57520283438777      1.06137846495087      0.07832779917986
  C   -2.41714010589447      1.76224244414119     -0.05320770775004
  N   -2.48516221331491      3.10452533715639     -0.16360866184656
  C   -1.25187562301456      0.92904354711547     -0.02347571005834
  C   0.02686808055127      1.45015578809956      0.00273331099021
  C   1.28558920545221      0.88230940567636      0.02763001839253
  C   2.48075193291389      1.67190658816132      0.05918590174026
  N   2.59817728368171      3.01052680150185      0.17255364808156
  N   3.61223993606402      0.92920499893392     -0.07401975033498
  C   3.19089017112150     -0.32882391009272     -0.16425193010197
  C   1.78060737497764     -0.48102293080496     -0.09423866205262
  C   1.24571769385071     -1.75456233923732     -0.11617914902771
  H   -2.10056707858126     -2.44298223810323      0.20911183275643
  H   -3.93729924044500     -0.99728166680660      0.26430902118867
  H   -1.73863128702253      3.60895736715341     -0.60448428400183
  H   -3.40793309074271      3.47951227356680     -0.30365671276064
  H   0.04700278906362      2.53748864111716      0.00406037695393
  H   3.53410290467479      3.35101050875180      0.31344349425993
  H   1.87063503007250      3.54123888019272      0.61433398913763
  H   3.89829223089277     -1.14094342578228     -0.26490162199712
  H   2.00964169427758     -2.51809936468520     -0.21344912411901
