29
Coordinates from ORCA-job ./opt_b97-3c_parallel
  N   2.32954399872542     -4.29143663521197      0.14299749225622
  C   2.01051295502221     -3.17477144265187      0.10420091475641
  C   1.59200049807488     -1.81246336918598      0.05480814327239
  C   2.63507383518980     -0.89320622419780      0.03393107605738
  C   2.70886509406629      0.49173579516603     -0.01499677810987
  C   3.97702464103537      1.13254409579290     -0.04584753905734
  N   3.90005967984314      2.46959774880221     -0.08474412832072
  C   2.57826990672656      2.73663590839793     -0.07645211094112
  C   1.76676611570530      1.58246776699314     -0.03544081480915
  C   0.37596267524518      1.70047909993745     -0.00861421780479
  C   -0.66932158004051      0.81500371943557      0.01609092941199
  C   -2.02213034195231      1.28702603330852      0.03779479420714
  N   -2.44452844934138      2.55782235054274      0.05608991619687
  C   -2.90830341971085      0.18850286723356     -0.00718862729696
  C   -4.30094635817052      0.26298205947121     -0.01084318235940
  N   -5.46401150696140      0.32714508218869     -0.01284945657930
  C   -2.14411537411745     -0.99308438884555     -0.04386176402076
  N   -2.69314596755670     -2.21181558936685     -0.07267579222032
  C   -0.73831914392029     -0.65914189771836     -0.00948421599485
  C   0.18079593749134     -1.67251384085525      0.01983437056036
  H   3.61171501754045     -1.36457019699773      0.05365903241500
  H   4.93398698038904      0.62777484790428     -0.04006867239696
  H   2.22110627622404      3.75827701007462     -0.09936825899404
  H   0.07625559362260      2.74487146151156     -0.02652053126331
  H   -3.42390747726527      2.75392336295244      0.16351133208592
  H   -1.81332388402752      3.31352515039768      0.24225981315304
  H   -2.14478204380684     -3.03921848419418     -0.21085915245610
  H   -3.68953693510161     -2.31075313640238     -0.15116127991989
  H   -0.27550552262898     -2.65498702228267      0.03137295287215
