29
Coordinates from ORCA-job ./opt_b97-3c_parallel
  N   -3.71391918239596      2.43509413846893     -0.90659071766204
  C   -2.77552572422160      1.85769631220195     -0.54315260833603
  C   -1.52170437023166      1.25749734101752     -0.20064649009195
  C   -0.52548898348236      2.23964304987145     -0.15707867147695
  C   0.83501867273970      2.26348541949044      0.08221360366453
  C   1.85940066597495      1.33416521877676      0.15903174403535
  C   3.17798063429983      1.77677960253991      0.33874612702534
  C   4.05882927586432      0.69203725694339      0.21669714356092
  N   5.40480206613865      0.72310114827527      0.36784413534774
  C   3.29078832013749     -0.45982678938765     -0.04265018722943
  C   1.93017459746873     -0.12802402577149     -0.06768816655483
  C   0.93883283326271     -1.11754870389334     -0.20979078429175
  C   1.50679041141308     -2.40883556136078     -0.47547510844992
  N   1.99219212526494     -3.43486214453304     -0.71285212663360
  C   -0.46059341798781     -1.15407545230028     -0.06847868854034
  C   -1.10711788309184     -2.41433733556561      0.03073387552988
  C   -2.45348380806275     -2.23561097177749      0.24675323885058
  C   -2.73673591740978     -0.85551410747975      0.23442614660961
  C   -4.02058478403626     -0.37270808236294      0.53062265925578
  N   -5.10426594296014     -0.08173765195693      0.83461315123311
  C   -1.52872134772803     -0.13094508191246      0.02271204966584
  H   -0.93114389298219      3.23250813767740     -0.29739257436876
  H   1.20324858717173      3.27850913000630      0.18781594960378
  H   3.45917265352599      2.80502039156330      0.50702086496176
  H   5.94814959372121     -0.05608716901344      0.04323395003612
  H   5.87715391095342      1.60856547375838      0.35655000467354
  H   3.69380114152018     -1.45085440720690     -0.16768177788812
  H   -0.60582854040332     -3.36544904939685     -0.00561353330083
  H   -3.18487084656098     -3.00706247837434      0.42178518306988
