29
Coordinates from ORCA-job ./opt_b97-3c_parallel
  N   -4.83227109742332      0.69475795257610     -1.27146331480105
  C   -3.94360278863188      0.12863177617853     -0.77990698500020
  C   -2.96368686317217     -0.71134560637594     -0.23213740776073
  C   -3.30161406830277     -2.03194580443487      0.20083368505810
  C   -2.17623478326164     -2.66828267357828      0.62367583271488
  C   -1.03950022959055     -1.81844110682274      0.39238983954168
  C   0.19000339305172     -2.40544845447873      0.44032385358609
  C   1.50499495548458     -2.11727537541629     -0.02196606929911
  N   2.26674291665226     -3.23902314636769     -0.17638852038731
  C   2.12083063574970     -0.87537981786100     -0.23602690248921
  C   3.47789651771486     -0.96032468048818     -0.64971797063485
  N   4.55765526999226     -1.18098363249923     -1.01789426547390
  C   1.69244898203404      0.44787831796116      0.03452666151864
  N   2.64789326849680      1.37596234634104      0.10958799589679
  C   1.97649886393767      2.54592454299594      0.29443714343120
  N   2.62323067652969      3.69802994797629      0.47317289748176
  N   0.63951289256484      2.45598294413019      0.30069547887224
  C   0.38054117044974      1.14061794915192      0.13752168979867
  C   -0.96097878084216      0.75699315717734     -0.03947874742272
  C   -1.83228961385578      1.88659269297152     -0.10612411807323
  N   -2.54110191654170      2.80383101685122     -0.12884442818037
  C   -1.57915335318503     -0.50628054825663     -0.06030363553415
  H   -4.30039447850484     -2.43548510091152      0.16383136247507
  H   -2.10305752013580     -3.69194050594718      0.95316463173212
  H   0.12864377099532     -3.42639171719472      0.80252995250596
  H   1.81323481246355     -4.12586396322094     -0.29075763111163
  H   3.19393815551836     -3.16379558533740     -0.55975861499473
  H   3.62150700748819      3.72751418530191      0.38305575312823
  H   2.10295277082406      4.55260147677823      0.54584648522174
