24
Coordinates from ORCA-job ./opt_b97-3c_parallel
  N   4.49716555423881     -0.76376135992444     -1.19065640759940
  C   3.42423246850864     -0.99963189692172     -0.81212844026978
  C   2.14323714491741     -1.34452374695094     -0.36449159917466
  C   1.77223344229237     -2.61498813989283      0.14965550061663
  C   0.47132294430367     -2.58005562521212      0.58864983512891
  C   -0.08747673516269     -1.30478266323333      0.29608726271836
  C   -1.44758707211503     -1.10934150313520      0.24338306670587
  C   -2.27690833136392     -2.18640404017602      0.65086458890014
  N   -2.98302784442324     -3.05374678848522      0.96510696784009
  C   -2.19122573888779      0.03593490254535     -0.28114504583484
  N   -3.30040262204370     -0.25118004742334     -0.99124383828321
  N   -1.98132546720680      1.29482272371769     -0.03053963387215
  C   -0.94835096043848      2.04664367067923      0.25924371594557
  N   -1.12336073987136      3.30595329373633      0.68478851803241
  C   0.11585991337474      3.84201870744937      0.61886514862504
  N   1.10881235735116      3.07690565022465      0.14521119350882
  C   0.52989275236936      1.86918767789942     -0.04347097648328
  N   1.26975146084722      0.83759304520816     -0.36003845079049
  C   1.05796044598822     -0.45188614963140     -0.23082795093306
  H   2.42985232011290     -3.46837815026470      0.19040173748815
  H   -0.08124649363331     -3.41515416514176      0.98514206883048
  H   -3.61909032371763     -1.19558354130149     -1.11381827914290
  H   -3.94499457728820      0.49785875068051     -1.17775725020078
  H   0.29461817224705      4.86191228085143      0.92762489104376
