27
Coordinates from ORCA-job ./opt_b97-3c_parallel
  N   4.90519914141173     -2.22207736196382     -1.03180528257550
  C   4.18279803846124     -1.35430445103846     -0.75630870928036
  C   3.32689886997741     -0.29366169468429     -0.43796285616164
  C   3.65153426345208      1.07197619479012     -0.45628313142558
  C   2.57740260080128      1.81738812997092      0.01439011037392
  C   1.49406616733133      0.96175091999771      0.28834803539890
  C   0.19004264896583      1.43169017881794      0.44486017970568
  C   0.08591428288419      2.85139958481984      0.57034107716483
  N   -0.01391293148217      4.00063387026739      0.69006276409910
  C   -1.05779141258371      0.78176362562236      0.31958017361639
  C   -2.23084573991489      1.48173058429963      0.06425813308909
  C   -3.26255203867196      0.57686016943307     -0.27654780504601
  N   -4.51075540405659      0.89725857314753     -0.62947070259526
  C   -2.75218557395102     -0.73979162999808     -0.18296621398390
  C   -3.52667385116988     -1.88785801346985     -0.35626851180647
  N   -4.24704997690790     -2.78545566713382     -0.52580748615937
  C   -1.39968989117923     -0.67746365972121      0.23852821232912
  N   -0.79828287604173     -1.75692718181480      0.66480687974125
  C   0.44649093723863     -2.06126846515683      0.96859666358368
  N   1.59441440265984     -1.60122870982474      0.51433391478474
  C   2.01044275949335     -0.44063948229646      0.08899338693396
  H   4.59911232742808      1.47169750719655     -0.77954451498142
  H   2.54780287799267      2.89204050526476      0.07702692430641
  H   -2.33017464355592      2.55473132507121      0.05627652732952
  H   -4.83580274319097      1.84524865060899     -0.59230386182663
  H   -5.18489711059449      0.17955746711111     -0.83140509010816
  H   0.54308501960194     -2.96214756881709      1.56680041909314
