28
Coordinates from ORCA-job ./opt_b97-3c_parallel
  N   -3.37605116309338     -2.88705383672286     -0.33584166718843
  C   -2.58851916038132     -2.04618440554773     -0.20024814077238
  C   -1.51641469664105     -1.10742872820166     -0.07393762607397
  C   -0.29403091178224     -1.78333733961558     -0.05112789510186
  C   1.05809766665574     -1.46203432852166      0.01985072373562
  C   1.82177124587475     -0.31439196512847      0.02333848451694
  C   3.24091583758141     -0.38260186600017      0.07060927324617
  C   4.03089096900189     -1.53198723063004      0.14222419960265
  N   4.73527638705894     -2.45695051105480      0.19961324976950
  C   3.77182910647930      0.92848362704585      0.01274205257719
  N   5.07493251791613      1.24212596855728      0.04862845798686
  C   2.68646698835777      1.82517288447823     -0.06832301908135
  C   1.48653623287922      1.11639753474438     -0.06027984926311
  C   0.27512106408732      1.80248283348245     -0.09213811524817
  C   -1.06745895073976      1.48830131986042     -0.04714651781629
  N   -1.89431226951097      2.58932699227190     -0.02748572494855
  C   -3.13438494913437      2.14502126213795      0.05206610377946
  C   -3.20660870779915      0.73069164394401      0.06799052623050
  C   -4.43068620389133      0.05730007244825      0.19186736443639
  N   -5.50227641511755     -0.37434931452683      0.31770177397136
  C   -1.87590685511768      0.25698701939126     -0.00101848741600
  H   -0.43606920004889     -2.85488383776906     -0.09318095339726
  H   1.66934520604247     -2.35725268385268      0.06308849194963
  H   5.38478307374837      2.18736471072024     -0.07317201769653
  H   5.77464289598317      0.52144386208331      0.05073542797540
  H   2.76666701783272      2.89987148898668     -0.11676507587126
  H   0.39683831959906      2.87873502899150     -0.13389472953357
  H   -3.97892342604055      2.81561072712782      0.10312115533109
