28
Coordinates from ORCA-job ./opt_b97-3c_parallel
  N   -2.94744809052069     -3.30671927418053     -0.26575208656240
  C   -2.19395488586656     -2.43002822365580     -0.16424780668165
  C   -1.18115159012057     -1.42798768782389     -0.06272605826977
  C   0.08908481561952     -2.02339967557234      0.00937958982077
  C   1.40208829401578     -1.60410066324640      0.08174056105000
  C   2.05004291122985     -0.38041660667477      0.05140455047070
  C   3.44593575381758     -0.26865915014707      0.07650797295814
  C   4.39752194564350     -1.28363968616287      0.17429434505933
  N   5.22511944875704     -2.09886445667220      0.25314350260210
  C   3.73596815471223      1.12471926589026     -0.05399721866256
  N   4.94830608492348      1.67010470929362     -0.09352239764483
  N   2.62628168343970      1.87411313034355     -0.13583472072482
  C   1.56667681266481      1.03706233873493     -0.06896132473787
  N   0.38258234504571      1.58959887035104     -0.07995879306082
  C   -0.87329254942710      1.22939603036734     -0.02939789683745
  N   -1.76095470875006      2.24740441351923      0.00354999911189
  C   -2.98756760502599      1.71803224946423      0.02778229313444
  N   -4.07882091284911      2.47293443159179      0.08124847599723
  C   -2.97275169860615      0.28546916927283     -0.00938727013136
  C   -4.17609085621421     -0.42539275027962      0.02975200795488
  N   -5.26807127826522     -0.82554463459992      0.07657482809119
  C   -1.62651788139195     -0.09581261346422     -0.03349582681536
  H   0.01611678969876     -3.10307854072357      0.00818789007996
  H   2.09202185086330     -2.43813887184693      0.14865072042957
  H   5.03439384013506      2.66660434653348     -0.18660389955304
  H   5.77873602532685      1.11049413264543     -0.02198018309532
  H   -3.98432962985443      3.47257102902490      0.10873393994141
  H   -4.99602173370036      2.06238276901589      0.09894279387553
