24
Coordinates from ORCA-job ./opt_b97-3c_parallel
  N   4.56146698430694      0.28320460098206     -1.35530629760258
  C   3.52019927992043      0.54117772191035     -0.90925992043499
  C   2.26644282158865      0.96674609300311     -0.44489219047269
  C   1.92901879942509      2.32573550303740     -0.32711153990126
  C   0.61246157631676      2.43660768163018      0.08205468663474
  C   0.03371747601958      1.15476453111510      0.17474276093247
  C   -1.35366258624606      1.01895699362681      0.27088285320799
  C   -2.07698154375002      2.22745439443230      0.51508978147407
  N   -2.61032506372544      3.22463778199517      0.76907410265493
  C   -2.18018395836745     -0.08469789350296     -0.01069731516478
  N   -3.46123461923054      0.12633417595600     -0.34215949119827
  C   -3.89654545593635     -1.09027054926453     -0.75955539527440
  N   -3.04428861150096     -2.10780432462148     -0.63022156656514
  C   -1.91487069070235     -1.53598614681602     -0.14039827190976
  N   -0.95543076129479     -2.30155316535726      0.32397836367379
  C   0.28259107540506     -2.14345529884228      0.67071559946850
  C   1.25670196441333     -1.15792942921684      0.31459223359531
  C   2.56223867655461     -1.70869563693185      0.46393302492504
  N   3.56457546683189     -2.25059046396788      0.68420927034258
  C   1.14004983537173      0.17404703411202     -0.07550407991702
  H   2.59854493391091      3.14086737691273     -0.54738436208347
  H   0.07655316819411      3.35996693669912      0.21801045174820
  H   -4.89159083514577     -1.22034272248626     -1.15680166978641
  H   0.69816602714018     -2.99019010710518      1.20808054245319
