31
Coordinates from ORCA-job ./opt_b97-3c_parallel
  N   1.54206764772097     -4.62979371421321      0.10551510796489
  C   1.85156529063891     -3.51026674158397      0.07104319122937
  C   2.27383296885465     -2.17573463005072      0.03059679359848
  C   3.60036142649321     -1.73444779175322     -0.03084129553627
  C   3.62365490896390     -0.34751093186524     -0.06994226104222
  C   2.31386861897296      0.16859529701766     -0.02653297628829
  C   2.09267202944734      1.55156652966790     -0.01476787634871
  C   3.29599688566273      2.31166935055794     -0.08877223353299
  N   4.24283299875478      2.98111591664785     -0.15261624895330
  C   0.93028938562392      2.38112661600590      0.07126789851043
  N   1.15685292158817      3.72600014953379      0.18577934563351
  C   -0.43547805516037      2.05132422227462      0.05961049081599
  C   -1.22504003980873      0.92866407551178      0.01353012517011
  C   -2.64657284955306      1.07184482072293     -0.01064710081648
  C   -3.35461050892129      2.27373897198944     -0.01693451561464
  N   -3.96054588134199      3.26847495743376     -0.02349940252734
  C   -3.25508423544381     -0.20113072907255     -0.02790380123150
  N   -4.56302005594951     -0.45926081905738     -0.05738933130260
  C   -2.22132787698803     -1.17309968470342     -0.00876643982156
  C   -2.47021828590492     -2.54709639328066     -0.01439559810459
  N   -2.79778396088990     -3.66307642866219     -0.02153331873824
  C   -0.96172081361440     -0.52606781960060      0.01331818624951
  N   0.12170046380029     -1.26654935150386      0.03692622501761
  C   1.40473510688151     -1.04396118469943      0.02717142349954
  H   4.46480570801672     -2.37823791581063     -0.04495934390595
  H   4.51943319685218      0.24798132611163     -0.11092516608331
  H   0.39235244958117      4.36319094259341      0.06432119735739
  H   2.07592963113232      4.11009290868029      0.05736207855129
  H   -1.04623389427563      2.94784344776289      0.09485780796859
  H   -5.23895762446323      0.28316867264420     -0.06347178405665
  H   -4.89734962257088     -1.40665055879898     -0.05990917136209
