28
Coordinates from ORCA-job ./opt_b97-3c_parallel
  N   4.69021173436196     -1.44205056394047      0.47073641940091
  C   3.76598500650642     -0.74465332226669      0.34310809771061
  C   2.71965596384295      0.16429320896368      0.19153597544752
  C   2.89370298724018      1.56810457314691      0.07037497800235
  N   4.07443719856426      2.19729977085956      0.18007694256397
  C   1.64079299994128      2.16088548456415     -0.14893304776412
  C   0.64547685915919      1.18103422806548     -0.14859774439555
  C   -0.69204249944332      1.52236419723838     -0.20424500582324
  C   -1.88170354022143      0.81888514750795     -0.07521373361185
  N   -3.03668064586642      1.51380239043207     -0.04778377185762
  C   -3.98764734636994      0.56555528929524      0.13841118787707
  N   -5.28401031212090      0.89698536075156      0.26239622576122
  N   -3.56551557838101     -0.70771716180572      0.22425956447667
  C   -2.21882189005962     -0.62060159837502      0.08543599593680
  C   -1.49058518605513     -1.78880386239904      0.02620928340854
  C   -0.12886651996653     -2.10358865329246     -0.13107990603065
  N   0.13622636392570     -3.42350148195918     -0.40850977173666
  N   0.99169784166339     -1.40068815510821     -0.01632823016881
  C   1.34769792950125     -0.14817912613319      0.02832081790298
  H   4.92212092086731      1.66079508895260      0.23954831522766
  H   4.16090080873605      3.16556483431965     -0.06551158476601
  H   1.45940263782463      3.22012672642913     -0.24273978751030
  H   -0.87325108294290      2.58694335033010     -0.30429862433379
  H   -5.56255553959486      1.82472211627904      0.00211571041878
  H   -5.96746735665728      0.16401268803193      0.21951368597830
  H   -2.13912823786357     -2.65486882547912      0.09050333902510
  H   -0.57976640859727     -4.11447959984067     -0.27757695014355
  H   1.08520110110720     -3.71656021936971     -0.25332312619604
