24
Coordinates from ORCA-job ./opt_b97-3c_parallel
  N   4.12879118129895      2.20867095089780     -0.01340941825344
  C   3.09251058824196      1.68668813088123     -0.00842051136187
  C   1.80265115658685      1.06736607912617     -0.00211646807184
  C   0.77151802188489      2.02378256379558     -0.00319021409790
  C   -0.60380237859853      1.98003857502601     -0.00045263872602
  C   -1.57372127807171      0.97858195484225      0.00837592421923
  C   -2.92590099743215      1.28017400422716      0.01161387202147
  C   -3.61660198914345      0.04774304038642      0.02741522329110
  N   -4.94402424293914     -0.14339312672767      0.05800094542058
  N   -2.78281334290048     -1.01054528963533      0.03542983366263
  C   -1.52000045884884     -0.52821909711389      0.02390662629887
  N   -0.55931795518142     -1.41760838394295      0.02121971105397
  C   0.74895185842438     -1.40377026840276      0.00994339746756
  N   1.35166396376845     -2.61874360523651      0.00778371844160
  C   2.67734629744941     -2.40599260805328     -0.00044301710781
  C   3.02490394513570     -1.05838074437120     -0.00318813220321
  C   1.83054569047598     -0.33001241454361      0.00212988837040
  H   1.15456961361822      3.03589910654251     -0.00853544226937
  H   -1.04258123875102      2.97233890793399     -0.00545234743962
  H   -3.35833015114387      2.26908260514675      0.00677477512623
  H   -5.58356448639436      0.61451672275968     -0.08595266296897
  H   -5.29030975670965     -1.08212203092059     -0.03153221299177
  H   3.35923554428171     -3.24449892193786     -0.00388070771304
  H   4.02119721894824     -0.64854641397924     -0.00869761756899
