25
Coordinates from ORCA-job ./opt_b97-3c_parallel
  N   4.29547497089238     -1.84410077186561     -0.00221478880906
  C   3.38482898722474     -1.12029089304751      0.01136803216671
  C   2.37896598838180     -0.15019177831812      0.02293356140951
  C   2.63760570938854      1.24269214593203      0.02583303095401
  N   3.86262800129317      1.80080043770731      0.07178920285359
  C   1.40223048913970      1.90798191021887      0.01738941006156
  C   0.35213999601712      0.98238878791353      0.00908796215973
  C   -0.96226873376475      1.42440585152975      0.00597815489139
  C   -2.19996806580374      0.80465531112429      0.00273162704075
  C   -3.40000489827892      1.53549984415054      0.00599875798425
  C   -4.43547339398753      0.60482978362001      0.00182896595850
  N   -3.99397846592728     -0.66601081249673     -0.00490972220747
  C   -2.63384785229831     -0.60869274140654     -0.00442846448648
  C   -1.95504332913775     -1.81440121145657     -0.01534814107373
  C   -0.61905144038956     -2.21681861274909     -0.01763836454268
  N   0.56091032891166     -1.62456984989481     -0.00338059494056
  C   0.97852273395710     -0.37882349366021      0.01036889059673
  H   4.67165588892314      1.22074092844036     -0.06739879968710
  H   3.97565418378204      2.77996304630116     -0.11303062922034
  H   1.27326368576079      2.97979557908309      0.02360957070323
  H   -1.03667647756510      2.50835165713616      0.00858718444249
  H   -3.48480002202085      2.61079983379404      0.01138943197495
  H   -5.49617413924491      0.81078595788113      0.00333431970486
  H   -2.64519990734125     -2.65012228035800     -0.02374722775381
  H   -0.51672981811220     -3.29889679097914     -0.03083396628105
