28
Coordinates from ORCA-job ./opt_b97-3c_parallel
  N   5.41705699727601     -0.18422940287332     -0.70966281056052
  C   4.39185284804700      0.32656824981804     -0.50887987398378
  C   3.15871130711417      0.94276358244813     -0.26746989348749
  C   2.91969222650782      2.32150407549096     -0.12310821084924
  C   1.58282969091717      2.53097732096828      0.17362862438853
  C   0.89904476119784      1.29742062862348      0.19721849083736
  C   -0.47078755034184      1.24551910958809      0.27733342540244
  C   -1.41472851836422      0.23121891784941      0.12855983061249
  C   -2.79288700219518      0.50997641136994      0.07941712747464
  C   -3.42876210102269      1.74453977506541      0.19680099163287
  N   -4.00300388665146      2.75410239922693      0.28654214598239
  C   -3.45030961046989     -0.73682396306169     -0.17534543123688
  N   -4.77473415964283     -0.91117996596097     -0.28536076628088
  N   -2.58505643873195     -1.74356549687610     -0.26701410140295
  C   -1.33212385025102     -1.22464648812141     -0.07628533806857
  C   -0.29937233065389     -2.13045741167180     -0.00598459314811
  C   1.09576272998632     -2.04819012193732      0.19629771711309
  N   1.70824299307042     -3.22123496403887      0.54651182125947
  N   1.96587919781286     -1.06441166024420      0.02442819230234
  C   1.94148459767508      0.23616007781885     -0.04188266545676
  H   3.67329614556926      3.08602017215564     -0.22494841835290
  H   1.10961844972069      3.48963356176453      0.31412164588860
  H   -0.92416243024349      2.22285154932450      0.41426546675272
  H   -5.39029967713514     -0.12089784868795     -0.34197576286393
  H   -5.11807439704657     -1.80473306152603     -0.58746541332723
  H   -0.66792510984646     -3.14413177722529     -0.11190494113064
  H   1.20662747558337     -4.08927400638026      0.50770464727718
  H   2.70595131781870     -3.25606489900697      0.42747932362574
