23
Coordinates from ORCA-job ./opt_b97-3c_parallel
  N   -3.30335585848390      2.78078391490406     -0.00357674853624
  C   -2.90245897323559      1.68968625838157     -0.00241067823462
  C   -2.42675022239670      0.37031855356847     -0.00160517810764
  C   -3.24414356520262     -0.78557418252334     -0.00078612296126
  C   -2.42901289365150     -1.89387511240544     -0.00022040308753
  C   -1.06511355708712     -1.48972354122980     -0.00061911840030
  C   -0.06711195285364     -2.44167876808964     -0.00020622665398
  C   1.33925143539334     -2.46563979075972     -0.00031472835592
  N   2.30702512305923     -1.57848103769973     -0.00077862490646
  C   2.32759255502958     -0.25262739339669     -0.00149627600784
  C   3.56837394654395      0.40988840786972     -0.00182689288945
  C   3.30545692910067      1.77397737893187     -0.00267296961579
  N   1.98552141385436      2.04611009779332     -0.00291601814660
  C   1.32753235371390      0.85698753050766     -0.00221143886110
  C   -0.05233039529288      0.92858265458694     -0.00218948278286
  C   -1.06446092967769     -0.01669909927230     -0.00150310941840
  H   -4.32171244920954     -0.77489465166804     -0.00066369469837
  H   -2.75510977997905     -2.92183804235717      0.00042651390734
  H   -0.46503196312388     -3.45183530550534      0.00038907568961
  H   1.72533929575383     -3.48224633244281      0.00016796974564
  H   4.52225955191455     -0.09067199464588     -0.00148911419966
  H   4.02259062412424      2.58159563255481     -0.00313070094936
  H   -0.39478228179352      1.95791910639750     -0.00282008472924
