24
Coordinates from ORCA-job ./opt_b97-3c_parallel
  N   2.82694573493754      3.25439007481831     -0.00026920394255
  C   1.94283427674178      2.50247344668566      0.00050862135048
  C   0.85218019389899      1.57836217991645      0.00101093831659
  C   -0.38167348347751      2.22567699685289      0.00175759049221
  C   -1.71005877319391      1.82058475570563      0.00229609934844
  C   -2.37340791573057      0.61069005183867      0.00224809342766
  C   -3.77307342204366      0.53624746941612      0.00268872795116
  C   -4.10316835362863     -0.81392087934699      0.00223582271717
  N   -3.02979739615307     -1.62832289964967      0.00160209778322
  C   -1.93127539849385     -0.83649898684031      0.00157829865934
  N   -0.77171518011755     -1.44554021986530      0.00118194235518
  C   0.48739798712132     -1.09135589200826      0.00094546705192
  N   1.38119144412865     -2.10727189508119      0.00057904147912
  C   2.61097636163613     -1.56532413926874      0.00006618380332
  N   3.69557883561652     -2.34908612439772      0.00044492772131
  C   2.58224869744904     -0.15129470269354      0.00009657438225
  C   1.25128753206197      0.22219796970734      0.00064935418647
  H   -0.27954239580519      3.30314323293454      0.00192962140643
  H   -2.38975856619703      2.66647104858032      0.00282123165952
  H   -4.45030342129547      1.37615977999347      0.00324114805621
  H   -5.09810480323498     -1.23619205677296      0.00236809247673
  H   3.57559700516194     -3.34596022878789     -0.00331471444245
  H   4.62330801995339     -1.97125098787375     -0.00493694500468
  H   3.43449874246412      0.50840196733693     -0.00014528623504
