27
Coordinates from ORCA-job ./opt_b97-3c_parallel
  N   5.21543827054989     -0.16676596827558     -0.00736477159619
  C   4.14359503808931     -0.61939139406002     -0.01106359836722
  C   2.83832073240237     -1.12645166211085     -0.01206527646796
  C   2.48193923529863     -2.48214354457268      0.00270339320877
  C   1.09983700486217     -2.57583002405163      0.00311122954641
  C   0.52819919640272     -1.28506900996109     -0.00945831555284
  C   -0.84566918432794     -1.14145285003040     -0.00687399041383
  C   -1.71676942359930     -0.06481239843759     -0.00856299400140
  C   -3.12618430393081     -0.25406822625246      0.00422637768950
  C   -3.79605633061138     -1.48207539695123      0.01929481579475
  N   -4.33727471614365     -2.51163024201914      0.03198457014089
  C   -3.70254716152628      1.02857291724044      0.00261892718274
  N   -2.78794746200716      1.99340710404016     -0.01112314446773
  C   -1.55387250255592      1.38928693690176     -0.01946705018426
  C   -0.48011333352907      2.25903371107103     -0.03628951858299
  C   0.91471055477051      2.16468476428726     -0.04735936336822
  N   1.57507687093422      3.37914360603449     -0.11818818598577
  C   1.76983107656960      1.04683220818466     -0.04218485815147
  C   1.64992888847188     -0.32211290069247     -0.02154740230973
  H   3.18058274014940     -3.30266470363566      0.01263882952442
  H   0.52745870398294     -3.48961514351177      0.01304553902457
  H   -1.36143276046038     -2.09695421074009      0.00202064419785
  H   -4.75801388849740      1.25440407202382      0.01089768975808
  H   -0.84620598554032      3.28006592783146     -0.04827679312608
  H   2.54379575201527      3.40422205640003      0.14641229231506
  H   1.06413240512497      4.20442291858512      0.13943098724773
  H   2.81351937360579      1.34671663870246     -0.06098322325514
