28
Coordinates from ORCA-job ./opt_b97-3c_parallel
  N   5.23575321328428      0.98865510750351      0.79653851925310
  C   4.31357822328136      0.34508409805226      0.50487575550253
  C   3.28608937047498     -0.56263728768519      0.19950103053075
  C   3.54497325409526     -1.94118763360722      0.11539143083738
  C   2.35227590723160     -2.59713531449805     -0.12764300984552
  C   1.29108326628513     -1.66621119915791     -0.16674254874834
  C   -0.00002404765153     -2.15581513132980     -0.28153537922957
  C   -1.29109484180358     -1.66632508567008     -0.16587192380956
  C   -2.35219335630932     -2.59732626770212     -0.12599817196860
  C   -3.54477606142727     -1.94144346274181      0.11778490281477
  C   -3.28593297461307     -0.56286607697295      0.20160505467704
  C   -4.31322735835121      0.34482322014988      0.50772447215171
  N   -5.23513393652091      0.98841052234693      0.80019455242738
  C   -1.88550513697890     -0.33555084631466      0.00871240643380
  C   -1.31357845777288      0.93439790731138     -0.13370472718264
  C   -2.22242868707091      2.03905711061015     -0.23164593131462
  N   -2.86437586690707      2.99528085142773     -0.36497355533920
  C   -0.00014441674436      1.41827474160620     -0.24538722116523
  C   1.31339076998706      0.93451591986853     -0.13431536076216
  C   2.22205453361767      2.03932199646187     -0.23233113615562
  N   2.86371295745972      2.99578972025065     -0.36529998933594
  C   1.88550993584873     -0.33540293521673      0.00757519427422
  H   4.51804745940401     -2.38682567281641      0.23642692269443
  H   2.22732560369624     -3.66274565906367     -0.23712918229881
  H   -0.00002150525277     -3.23306159208414     -0.41168335596914
  H   -2.22724076335968     -3.66293730686869     -0.23549453672407
  H   -4.51773293395832     -2.38714657947406      0.23953828453144
  H   -0.00022996744432      2.48753220481446     -0.39691650677956
