27
Coordinates from ORCA-job ./opt_b97-3c_parallel
  N   -2.89019935425366     -3.75850829290566     -0.01131000011866
  C   -2.08385311452692     -2.92430861565165     -0.00889601658777
  C   -1.00371785321246     -1.98860957293782     -0.00570432978824
  C   0.25685045482169     -2.62468865682668     -0.00760631806364
  C   1.56756252854228     -2.22422885968544     -0.00546988929920
  C   2.24415204301239     -0.99730468859150     -0.00011219132422
  C   3.61846422991782     -0.92599013328353      0.00194708014709
  C   3.95619154354742      0.45723905721272      0.00789765352124
  N   5.18770167145576      0.97695087873170      0.01149832080082
  N   2.88036798121400      1.25590166232576      0.00933500574629
  C   1.79010445737294      0.44940431503547      0.00469854755363
  N   0.62713776373654      1.03493258740599      0.00488188721712
  C   -0.63301317526810      0.64539400786282      0.00212029316954
  C   -1.64224238575621      1.62416699275063      0.00352269627192
  C   -1.50149975906260      3.01235934018638      0.00712887707606
  N   -1.49341074579018      4.17569602929926      0.00970695647568
  C   -2.88853330750129      0.93262944495660      0.00109551280276
  N   -4.09840579907372      1.49029174823824      0.00160204881323
  N   -2.72629292846508     -0.39730249832769     -0.00186708705128
  C   -1.39965735558667     -0.65044704729021     -0.00172522790430
  H   0.15500208381036     -3.70213992709102     -0.01159906134140
  H   2.25317958595340     -3.06480478359972     -0.00821112160776
  H   4.30287759834198     -1.76054950319619     -0.00041267767915
  H   5.29330719758406      1.97592356639115      0.01714416102320
  H   6.00816822963735      0.40219823086503      0.01265610196811
  H   -4.21241264998681      2.48736316646810      0.00391200213458
  H   -4.91137570976432      0.90059597595729     -0.00007253695561
