30
Coordinates from ORCA-job ./opt_b97-3c_parallel
  N   -4.70797028311607     -0.22868210849523     -1.15919647371659
  C   -3.70975092230705     -0.61785256153285     -0.70638177519841
  C   -2.51451521543366     -1.17309018147252     -0.22756469628587
  C   -2.33398264522681     -2.57835305263800     -0.07253860127575
  C   -1.04625193140867     -2.81436269383001      0.32110188780041
  C   -0.32903827711608     -1.57844009245876      0.35888221557010
  C   1.03257607163579     -1.61274672377085      0.54411148001432
  C   2.07597035817978     -0.72074336391319      0.30400188851500
  C   3.39468875080630     -1.15539692144693      0.30296624746309
  C   4.24064598856809     -0.12541940977350     -0.19457841417510
  N   5.59831877781201     -0.21517529008965     -0.28729808151459
  C   3.44901248998386      0.97583375041439     -0.48999041762632
  C   2.09659932183501      0.68254859527484     -0.16735930239074
  C   1.15470028422217      1.67638115246577     -0.18571890656163
  C   -0.19399301345724      1.83849203561195      0.22067858191016
  N   -0.50279753202545      3.14269098633138      0.52702577588992
  C   -1.24066507440989      0.89238042735851      0.29363487102543
  C   -2.47617030875831      1.48630707420039      0.66672385942877
  N   -3.40854730680194      2.06707366762855      1.04799412519582
  C   -1.30230649940687     -0.50982076141421      0.06311772548412
  H   -3.09992657849541     -3.31097439331571     -0.26795983071617
  H   -0.59116068501570     -3.77812276779457      0.48508295195211
  H   1.39149285486502     -2.60071401024933      0.81721845898633
  H   3.71840726298725     -2.14598062940860      0.58645123016348
  H   6.06690629839107      0.43770822517880     -0.89012886161444
  H   6.00341548213395     -1.13435774714329     -0.29244148817534
  H   3.80093847183940      1.93622001007593     -0.83386805384512
  H   1.58515864869672      2.62434481389656     -0.49601140137604
  H   -1.46266924654059      3.44114789533983      0.54309471179161
  H   0.17163537396156      3.85430065907193      0.32082996777977
