27
Coordinates from ORCA-job ./opt_b97-3c_parallel
  N   -2.20785467913008      3.56897612372694      0.00296019781349
  C   -2.33280827388144      2.41375318253799      0.00072054535784
  C   -2.54190654913949      1.02765352705657     -0.00272755609094
  C   -3.79783262936258      0.39278470318810     -0.01267989428801
  C   -3.60318680569421     -0.97674453328714     -0.01288091266504
  C   -2.22088015677288     -1.27446880973444     -0.00387856741467
  C   -1.79354769297982     -2.58714876845747     -0.00391543974328
  C   -0.55533751191474     -3.22730500310878      0.00081970397070
  C   0.75616634264998     -2.79758099788973      0.00706346118003
  C   1.39534456551240     -1.55731279603626      0.01531526308959
  C   2.78931031341811     -1.49316620580823      0.02076276529651
  C   3.22046616552423     -0.15268262482378      0.03013870461497
  N   4.49220949144225      0.28885821311155      0.07387262171963
  C   2.07133678448139      0.66824277967761      0.03204953873790
  C   2.13196094211241      2.06384297626578      0.02340931602515
  N   2.31069756338436      3.21325839669511      0.01152033212616
  C   0.90361610247492     -0.14871963355683      0.02156351499612
  N   -0.26380433486913      0.44257967478947      0.01498204132737
  C   -1.51488507888961      0.04097604070068      0.00329416774434
  H   -4.74586511765719      0.90550461286506     -0.01881008717710
  H   -4.38151175908771     -1.72399266293667     -0.01895276750606
  H   -2.62150235541278     -3.28914846613647     -0.00991029362632
  H   -0.64373710553551     -4.30706798786758     -0.00278034999679
  H   1.46490280339191     -3.61970447723906      0.00595188976142
  H   3.44174325111148     -2.35346556647780      0.02328089234480
  H   4.67459994149468      1.26828450762605     -0.06155379881732
  H   5.24928044162899     -0.33930114688070     -0.12081950238047
