22
Coordinates from ORCA-job ./opt_b97-3c_parallel
  N   3.23349329610623     -2.78325281234668     -0.00574414173928
  C   2.81828047112759     -1.69873990254508     -0.00493424046133
  C   2.37220028519813     -0.36905162320109     -0.00378330868016
  C   3.19276643927671      0.76479428410082     -0.00386258946486
  C   2.39080977025123      1.89942070556345     -0.00247958388625
  C   1.03063756414545      1.54175652139097     -0.00145758512962
  C   0.05896952078495      2.52446890372764      0.00011424691120
  C   -1.33455996944962      2.54627967717757      0.00147918167851
  C   -2.30694584713633      1.56774938835585      0.00169651752516
  C   -2.28822255522337      0.17405125678489      0.00064065477667
  N   -3.48164520598539     -0.45746518621750      0.00122590068054
  C   -3.16660979292543     -1.77184838967345     -0.00004077709970
  N   -1.86891752446908     -2.07706257688979     -0.00137815835413
  C   -1.23337284342537     -0.87309769090647     -0.00103943823838
  N   0.08470704454399     -0.89166938315936     -0.00215395251163
  C   1.00076880921351      0.03653060850996     -0.00234086788246
  H   4.27038469653751      0.74623211453111     -0.00483848742220
  H   2.74814604579244      2.91748966738900     -0.00218923065028
  H   0.48760324306533      3.52176985156810      0.00036439863771
  H   -1.73997460172396      3.55046268922629      0.00258281957816
  H   -3.32357858086401      1.94292151557577      0.00292222266838
  H   -3.93294310854052     -2.53264516226203      0.00003982566396
