29
Coordinates from ORCA-job ./opt_b97-3c_parallel
  N   -5.64781325767471     -0.84434317579098     -0.61215821529508
  C   -4.70402504993845     -0.18595259945033     -0.44497541249210
  C   -3.56604756290780      0.60334329272570     -0.24432130275034
  C   -3.52338354694011      2.00314850004547     -0.12878001098829
  C   -2.22354304858277      2.41926618139013      0.12619142848716
  C   -1.36151757101271      1.31012439702660      0.15788163608333
  N   -0.06826176836534      1.49436824660865      0.24426652384984
  C   0.97329409585411      0.69789290944322      0.13764883899749
  C   2.26348653354229      1.28300156955533      0.13453314794131
  C   2.56552859880843      2.63950779734799      0.26790729169354
  N   2.91337609309891      3.74484374659692      0.37236419131638
  C   3.24415624105220      0.28045729729198     -0.07736009901598
  N   4.56063320319121      0.48285799039091     -0.14982358605330
  C   2.57797866246778     -0.95791643235362     -0.19550616179746
  C   3.23054300196310     -2.17734035604243     -0.37667154381481
  N   3.79568303758245     -3.18488001273598     -0.52655961483137
  C   1.17171911784551     -0.76699978045921     -0.04363134924246
  C   0.33333677975474     -1.85057461089518      0.02123561048055
  C   -1.05582651623871     -2.02414076655387      0.21020387629545
  N   -1.45494886627148     -3.28357671618587      0.54023005876287
  N   -2.08843975653044     -1.20414924655641      0.03997132487436
  C   -2.25634135185886      0.07939825456052     -0.03844914805346
  H   -4.38427250545553      2.64575734841721     -0.22309633439587
  H   -1.88056950584370      3.43380014657356      0.23843839522407
  H   4.94382501983296      1.40610692438976     -0.05287993052490
  H   5.19295003837823     -0.27861670665351     -0.31852677138947
  H   0.86015352418809     -2.79523350680766     -0.06492769394470
  H   -0.80632424084196     -4.04637831550044      0.59572076911379
  H   -2.43651619639744     -3.48956373317846      0.47993828586941
