26
Coordinates from ORCA-job ./opt_b97-3c_parallel
  N   3.69313069580117      3.37996914981340      0.30720091194638
  C   2.79798064668761      2.65003438960803      0.20198510905212
  C   1.58337100612158      1.89787163974706      0.09752284037525
  C   0.45664353736828      2.74163490523305      0.04796091494024
  C   -0.89368340156197      2.55840485757198     -0.08424967115339
  C   -1.74980293714255      1.45241021121735     -0.11282737837474
  N   -3.06221745126552      1.70221385340482     -0.21487246754916
  C   -3.64911112472918      0.48231738328071     -0.09689275650845
  N   -4.96779671456024      0.32320855499319     -0.16825366277358
  N   -2.80877637697765     -0.55508265953290      0.09734140918281
  C   -1.58261315923512     -0.00831602037524      0.07367621666822
  C   -0.47688253411681     -0.87725277158027      0.19557560248328
  C   -0.88285009110733     -2.19663949097466      0.56179988906857
  N   -1.20826507509234     -3.23791756485352      0.95502547750257
  C   0.90265305408433     -0.68705498131494      0.00434136535614
  C   1.82250428207613     -1.75870948907947     -0.12529785247657
  C   1.61754835423458     -3.13354649020206     -0.31255012500156
  N   1.57679217946657     -4.27552952437633     -0.52218179363969
  C   3.10828109637842     -1.18318098194222     -0.19189468962154
  N   3.08177776075758      0.13693877799487     -0.08953357197205
  C   1.77809332014096      0.51812590688324     -0.00274109349230
  H   0.73356821871770      3.78635206143413      0.09046899274939
  H   -1.45673825426805      3.48014541086019     -0.15886047957642
  H   -5.56369642885045      1.11582272956844     -0.31800149521141
  H   -5.36795825505522     -0.59045893519062     -0.05892204595038
  H   4.03359425342758     -1.72201459138823     -0.32778969312373
