24
Coordinates from ORCA-job ./opt_b97-3c_parallel
  N   4.67005325371574     -1.25707148754629     -0.01940948830943
  C   3.74090591986653     -0.55953588024937     -0.01582349310583
  C   2.64696428628096      0.31826093064284     -0.01127663811180
  C   2.71839405392499      1.71646831702765     -0.00907735057783
  C   1.42311875071296      2.21822209071928     -0.00458047447333
  C   0.48600454351550      1.16377080940605     -0.00374583487600
  C   -0.87013056123410      1.44591892457686      0.00065105313170
  C   -2.02427023542584      0.68249904263038      0.00268529128010
  C   -3.29009938087339      1.29569864127308      0.00745357685141
  C   -4.28950890073458      0.31681846871556      0.00867401835433
  C   -3.67930310515820     -0.93032955531714      0.00470527749044
  C   -2.27115382553338     -0.77317948905431      0.00086492476725
  C   -1.44612741876502     -1.87994898415219     -0.00349937616490
  C   -0.06490705509342     -2.12188748562135     -0.00794571165616
  N   1.02529147402008     -1.38487678152260     -0.00972962164677
  C   1.27432944787612     -0.09291553699967     -0.00814207736035
  H   3.62920107684696      2.29209903198839     -0.01064219186210
  H   1.15593952340513      3.26407485742668     -0.00202544594488
  H   -1.07538312960930      2.51285250896687      0.00308040563520
  H   -3.44824002671354      2.36352646551102      0.00978398458740
  H   -5.35219518503416      0.50160960862488      0.01210836246371
  H   -4.18131152170175     -1.88565998257976      0.00450024407271
  H   -2.00256504787457     -2.81255906426744     -0.00353354606072
  H   0.16764336738629     -3.18375192899939     -0.01053593138415
