24
Coordinates from ORCA-job ./opt_b97-3c_parallel
  N   -2.23469529689512     -3.45475224027671      0.00335634659397
  C   -2.25288558298846     -2.29339995286752      0.00432358702342
  C   -2.33369266484074     -0.89371722891977      0.00564693118941
  C   -3.52476418972942     -0.14630129336254      0.00900623996554
  C   -3.19824786431749      1.20002202747899      0.00940546689019
  C   -1.79401829435014      1.36488735883008      0.00633301609399
  C   -1.23758392177501      2.62889304877932      0.00610043827658
  C   0.05931564516671      3.15636203875975      0.00359193430207
  N   1.27925496919509      2.65654720258129      0.00047645252394
  C   1.75652727914841      1.42665017492758     -0.00159348568453
  C   3.15855801466374      1.26510755709471     -0.00483817860128
  C   3.49714160131522     -0.07987331839207     -0.00677868075979
  C   2.31810549256987     -0.84087651648800     -0.00483846301126
  C   2.25753421261741     -2.24144372290333     -0.00597115280858
  N   2.25287520879371     -3.40309635437655     -0.00701751007975
  C   1.18371623082899      0.02831786064104     -0.00154116972376
  N   -0.00802836233031     -0.51078705116944      0.00067424107583
  C   -1.21982428340976     -0.00383388571330      0.00385560928749
  H   -4.51696763222946     -0.56628136348119      0.01092334882936
  H   -3.90288646624543      2.01710620462210      0.01171623718241
  H   -1.98406734820633      3.41692206004213      0.00844566186186
  H   0.06753190770682      4.24286398703556      0.00443180431039
  H   3.83804314003414      2.10139900382435     -0.00562465392782
  H   4.49337262247755     -0.49073941066648     -0.00935694800968
