24
Coordinates from ORCA-job ./opt_b97-3c_parallel
  N   -2.77254638137993     -3.36654810048739      0.03500270489799
  C   -2.62337462880973     -2.21407950161937      0.02722429296353
  C   -2.50316244386470     -0.81794269171913      0.01724384452894
  C   -3.58813630518056      0.09657530767804      0.00955203547137
  C   -3.09662877069664      1.38012164874669      0.00084842988980
  C   -1.67578248590795      1.35228385810912      0.00181536295351
  C   -0.95263427844399      2.51490459188114     -0.00731658984382
  C   0.41826004095708      2.86001409458834     -0.01175991651210
  N   1.55283151124276      2.21543363170041     -0.00987709241131
  C   1.86177258558318      0.91650258801023      0.00078913034971
  C   3.19424923006292      0.54977549199567      0.00014362746351
  C   3.23603675162406     -0.86592761760783      0.01440321011337
  N   4.32865467087402     -1.64207321481855      0.03820067732204
  N   2.01275037795849     -1.42043984163161      0.02573295820608
  C   1.10631338359206     -0.41314018301484      0.01800973566920
  N   -0.15190120157613     -0.76621900887546      0.02106294803371
  C   -1.28642634409726     -0.10094256961418      0.01313712303643
  H   -4.62709443739229     -0.19155239368257      0.01062851887703
  H   -3.68365906177065      2.28486463842130     -0.00603744868433
  H   -1.57716663708310      3.40289135313423     -0.01356821789688
  H   0.56353545972027      3.93851173005131     -0.02007924600820
  H   4.02134932967903      1.24107651715552     -0.00744719934441
  H   4.20947188651583     -2.63694328004087     -0.03688602277428
  H   5.24555283769310     -1.25895291786059     -0.09003957720101
