26
Coordinates from ORCA-job ./opt_b97-3c_parallel
  N   4.07950692195885     -2.26593943459000      0.05214653571914
  C   3.05944005427735     -1.71327069206740      0.03507568254953
  C   1.78447020422971     -1.06056544129760      0.01469759253373
  C   0.73784315675760     -1.99257954492094      0.00564247280853
  C   -0.64368137386760     -1.91590063811204     -0.01126213703816
  C   -1.58746161563257     -0.90128393406787     -0.02716219347834
  C   -2.95552029841278     -1.20505582058351     -0.03793598781754
  C   -3.71254415092066     -0.02029439070464     -0.04610344908777
  N   -5.07217961693865      0.05901737142969     -0.10699500791872
  C   -2.82023580581948      1.06372164064751     -0.04832207504169
  C   -1.49869335591919      0.59116451193609     -0.03353757249066
  N   -0.52104197541027      1.47682789251758     -0.02656990663313
  C   0.79027244414058      1.41804059483818     -0.01074885910954
  C   1.49664644857470      2.64631325352341     -0.00878452662877
  C   2.85991757741180      2.40324888348389      0.00883227785193
  C   3.07507780394786      1.02010415943028      0.01894245663006
  C   1.84708154132613      0.33940329336352      0.00760977167871
  H   1.09581018601526     -3.01354748247630      0.01460048333472
  H   -1.10163853726484     -2.90012989502331     -0.01283141562548
  H   -3.36015438058508     -2.20667161961494     -0.04122505927582
  H   -5.59936674167677     -0.75154261019072      0.16577027767661
  H   -5.49877133408267      0.93031165921188      0.15357673505088
  H   -3.07426926813057      2.11154045683692     -0.06009646585674
  H   0.99712216400100      3.60080010122070     -0.02016439433784
  H   3.63816401458469      3.15072730452735      0.01394852289764
  H   4.04039772433546      0.54096566398202      0.03280781240879
