25
Coordinates from ORCA-job ./opt_b97-3c_parallel
  N   5.04274767755459     -1.06815145469031      0.14918773544265
  C   3.90101314269469     -0.87121887126876      0.10106861381323
  C   2.47548452281849     -0.77951924047278      0.03069121019813
  C   1.85728422796666     -2.01604078440763     -0.09874971991040
  C   0.53600790956472     -2.44105992421771     -0.12775944150745
  C   -0.73155068663815     -1.88838857730259     -0.04977241053221
  C   -1.82386191876697     -2.78418329798536     -0.00506284140785
  C   -3.00465484271863     -2.08371946278160      0.10210200054919
  C   -2.71827714292425     -0.70404592467516      0.08930033005707
  C   -3.75411310069296      0.22618636481616      0.27782735337431
  N   -4.70078863711295      0.86753041588077      0.48254291296684
  C   -1.30745660434219     -0.51682761259647     -0.01532653951037
  C   -0.70110777709624      0.73628735911842     -0.12962460900564
  C   -1.57522785574939      1.83987864304918     -0.39118315684537
  N   -2.28663911720351      2.70249239582567     -0.69668151946681
  C   0.64760078358990      1.15674497419684     -0.03966398355957
  N   0.84399503201969      2.49918121010527     -0.01561883117847
  C   2.16224588144331      2.65744166555968      0.14583146453441
  N   2.87892517822059      1.52499671621536      0.20552369076433
  C   1.96821765165983      0.53208416882689      0.09365377997423
  H   2.56121599004816     -2.83482846943919     -0.15516282339791
  H   0.48125919751057     -3.52205628340581     -0.19246090806532
  H   -1.72437955315278     -3.85735761647245     -0.03166497947973
  H   -3.99646802820450     -2.49417123641956      0.19481191963376
  H   2.61892507721128      3.63184799264118      0.22059192035897
