27
Coordinates from ORCA-job ./opt_b97-3c_parallel
  N   2.06808819207708     -4.23981009648234      0.45648777780688
  C   1.39461565755041     -3.30692815398733      0.30973382407878
  C   0.44223405975889     -2.24979057462399      0.15069724253893
  C   -0.86321084755506     -2.74247777523742      0.01992432835901
  C   -2.10474186514816     -2.18397995337172     -0.18564810476590
  C   -2.62079688259842     -0.89304979171281     -0.19663887450309
  C   -3.99445365324833     -0.67053315768595     -0.33647029944547
  C   -4.21065539861594      0.69483145331860     -0.13245336198624
  N   -3.07941426960379      1.35968354554170      0.12695817959242
  C   -2.06333022181365      0.45456169017162      0.07609741980982
  C   -0.77655900448355      0.97552427568588      0.20913789532569
  C   -0.78511629426784      2.36006052663878      0.57326591243811
  N   -0.73320029237503      3.45423455968497      0.95316114889352
  C   0.51470435444202      0.41460287365432      0.03742471599410
  C   1.67688854984930      1.20033980921959     -0.07915493215481
  C   1.89266620918765      2.56821667001952     -0.27073057149152
  N   2.27865583090428      3.64565282964990     -0.48042665777875
  C   2.78385033539554      0.29327453353319     -0.10117326120457
  N   4.06591449225145      0.62756925154018     -0.23168925478793
  N   2.38010633255120     -0.97279410257667      0.01871130617007
  C   1.02872521818122     -0.97361388950081      0.06610015166913
  H   -0.89116190852404     -3.82337376186495      0.05009683923059
  H   -2.87350102929852     -2.93448388258501     -0.33216500735225
  H   -4.73666395439393     -1.42942843560144     -0.52605215569227
  H   -5.15410054540682      1.21969777661394     -0.16396364671118
  H   4.34416851272253      1.58652057411413     -0.33973260694771
  H   4.76450881946150     -0.09323642085584     -0.25340273508538
