27
Coordinates from ORCA-job ./opt_b97-3c_parallel
  N   4.72645898516852     -2.25955343028485     -0.00114230669763
  C   3.63530044835116     -1.86550981569516     -0.00130738582061
  C   2.28152997240130     -1.40327946045658     -0.00122287723041
  C   1.37340716211191     -2.47264991438980     -0.00152138754095
  C   -0.00129406849354     -2.60519869645836     -0.00151128909492
  C   -1.08239370747174     -1.73297322264263     -0.00122607919211
  N   -2.31604291263773     -2.28885701720757     -0.00129266122488
  C   -3.21444312978101     -1.28773879448668     -0.00098845867625
  N   -4.52730067276961     -1.52021219350081     -0.00090724832894
  C   -2.58242207822854     -0.01149501629202     -0.00072972652024
  C   -3.25720874068213      1.20978687226754     -0.00040237755282
  N   -3.91695816361226      2.16755603185602     -0.00023565879496
  C   -1.19474834681717     -0.25521699549770     -0.00087176227251
  N   -0.35374771917387      0.76359915877958     -0.00067964899371
  C   0.93754855399516      0.90139681076982     -0.00066213384593
  C   1.46485712123446      2.23819810021995     -0.00037135019614
  C   0.68602226689695      3.40318627669988     -0.00014496722124
  N   0.07224508340713      4.38935128769023     -0.00004486140835
  C   2.85495908168098      2.17885160583284     -0.00034578079105
  C   3.25850350275075      0.84098640451040     -0.00063272076852
  C   2.14606334164463     -0.00628662331984     -0.00085284399370
  H   1.87550114705335     -3.43100474023615     -0.00179897684679
  H   -0.33651560533750     -3.63495356278525     -0.00176893884472
  H   -5.18996717071835     -0.76640730135782     -0.00088455421113
  H   -4.86169922182943     -2.46676792113385     -0.00129553597311
  H   3.51190769157842      3.03333259642822     -0.00013854112801
  H   4.28318837547820      0.50896238699054     -0.00068861053043
