30
Coordinates from ORCA-job ./opt_b97-3c_parallel
  N   -3.98123757596798      2.83629026400863     -0.35503068106469
  C   -3.66846278659976      1.72716982167644     -0.19319963855732
  C   -3.28819689099279      0.39404440365284     -0.00508743613014
  C   -4.15824088166076     -0.65741046242525      0.36570381901566
  C   -3.44030137321793     -1.82698316722414      0.48310626739431
  C   -2.07945961338270     -1.58271664221825      0.16816757585154
  N   -1.26525820139093     -2.59853345369378      0.04392214212992
  C   0.02156953161505     -2.76776276479708     -0.22263318379545
  N   0.30535041984419     -4.03978215888003     -0.64389051441507
  C   1.14551567161636     -1.92962493613922     -0.04433583465029
  C   1.35623800201352     -0.57490082773269      0.04293305048328
  C   2.68834993586708     -0.07341307724425      0.20322124013356
  C   3.84289788156225     -0.83539145074839      0.38225437175098
  N   4.82030213336349     -1.45118907124169      0.53138946687611
  C   2.67740005958654      1.32807329977826      0.09634742758828
  N   3.72956750981904      2.14821264170398      0.17465145289041
  C   1.33002900424658      1.73231029040406     -0.11750284501701
  C   0.96066725083312      3.07226516417509     -0.25105202144167
  N   0.72945374561637      4.20815107064512     -0.35852341737991
  C   0.48780889310238      0.59447774968239     -0.13265573120030
  C   -0.89107832339090      0.74358144050069     -0.23155268495519
  C   -1.96278026169265     -0.10741945572250     -0.09526060404481
  H   -5.21938876980672     -0.53957932336343      0.51650275053303
  H   -3.82647159892235     -2.80775721776121      0.70284641758242
  H   1.25480244539244     -4.36353528763757     -0.67752032572863
  H   -0.41053414825319     -4.73000487274116     -0.50001690332261
  H   2.06906793421715     -2.49555544796607      0.02319511103622
  H   3.61498985314735      3.14170000530305      0.08638900280586
  H   4.65175145047326      1.79022741543933      0.34399679071941
  H   -1.18941371423756      1.77955948386679     -0.36404068868792
