24
Coordinates from ORCA-job ./opt_b97-3c_parallel
  N   -3.97935140591685      1.94957215438151      0.95477430223202
  C   -3.34788313914948      1.04072959896467      0.59356586661554
  C   -2.56785868778966     -0.04044254893562      0.17253817948899
  C   -3.04833306926272     -1.20990648733259     -0.46387787623983
  C   -1.98937604269354     -2.02740578888507     -0.79726663054821
  C   -0.78420918297669     -1.43402157470062     -0.34256978352992
  N   0.31898326886960     -2.13317474246932     -0.25774098374563
  C   1.54761552716428     -1.80736307793735      0.14021891121169
  N   2.18624143399378     -2.74624258469673      0.87832217214664
  N   2.30730786293166     -0.78707486529461     -0.25031130727780
  C   2.06740980703671      0.48649886990229     -0.36138658152188
  N   3.06447343674855      1.29649645076804     -0.83164921023946
  C   2.67917314342999      2.54581065865405     -0.56779384216477
  C   1.42071393335412      2.63051178175539      0.06065148777343
  C   0.94072781751225      1.32833126403914      0.16281069005383
  C   -0.38542238252637      1.02841147160046      0.45713292495703
  C   -1.14830006357273     -0.08996561663703      0.21031042984402
  H   -4.09172127699940     -1.41409457581602     -0.64425178155052
  H   -2.04227700542618     -3.01232912876820     -1.22941693218103
  H   3.18986303852042     -2.69646927711493      0.91696996832379
  H   1.75866224384319     -3.65376870724024      0.94182054934085
  H   3.31522492609273      3.37782944986180     -0.83600644959618
  H   0.88906532651222      3.52891115620688      0.33131459273986
  H   -0.96072741519512      1.88601593209577      0.79302590456793
