28
Coordinates from ORCA-job ./opt_b97-3c_parallel
  N   4.49881158982887      0.72984675727182      1.24224458895182
  C   3.66702378987781      0.06197241658668      0.78077173818273
  C   2.68949247740879     -0.81437481873012      0.28613537815143
  C   2.91591781831015     -2.20947629195766      0.12797624705128
  C   1.75968793876425     -2.79635833564591     -0.31719306757873
  C   0.72720498135992     -1.81648724578105     -0.37276327661835
  C   -0.56916198297552     -2.21340695521798     -0.57638633820590
  C   -1.79645626751329     -1.61632774821382     -0.28980778096657
  C   -2.96945534335991     -2.36699967624243     -0.21684259047685
  C   -3.94506914002646     -1.54492888584087      0.38022006832365
  N   -3.48313582100017     -0.33241220553517      0.66299301932814
  C   -2.17385061809296     -0.29772214385318      0.24022362441248
  C   -1.58577448230505      0.95631354362759      0.21624988340052
  C   -2.42997482052972      1.99600666251070      0.71224344937807
  N   -3.01116723039563      2.93137245053312      1.07991960619891
  C   -0.34699609085463      1.44817021374837     -0.33636868159679
  N   -0.39799227960743      2.72498154268114     -0.79480273608819
  C   0.91554109752822      0.80205418530620     -0.33946681925038
  C   1.95996005357577      1.68102543218448     -0.73795431875716
  N   2.72335659813334      2.45198800307218     -1.15446652275016
  C   1.34911959198164     -0.51628088413759     -0.04582703919613
  H   3.84899729986621     -2.70012396212537      0.35089121864174
  H   1.60412968794847     -3.84707737004682     -0.50145681601996
  H   -0.66088038775762     -3.25318711755231     -0.87317158189487
  H   -3.07527602143039     -3.40120253151603     -0.50393879605993
  H   -4.96818136940137     -1.80814354960996      0.60546478214112
  H   0.45259676217746      3.23957970535732     -0.94725021889587
  H   -1.22378535290837      3.27471577242641     -0.63599464730667
