32
Coordinates from ORCA-job ./opt_b97-3c_parallel
  N   5.16623417067323     -0.64871154320808     -0.08655210448899
  C   4.23740306289006      0.03449079821203      0.06483664912942
  C   3.19934344462899      0.93843747335780      0.31919056209834
  C   3.39832560661105      2.07886211462464      1.17134786525400
  C   2.22407885300948      2.74878368798766      1.34874085120219
  C   1.22031986078250      2.10208468204991      0.56083315092584
  N   0.15028436486476      2.73511265436215      0.20469421383912
  C   -0.89598633143194      2.45442882748919     -0.56672538168546
  N   -1.27053177004061      3.45587096879862     -1.38449796258140
  C   -1.73622574190984      1.31149225578034     -0.43639090690424
  C   -3.07534357175492      1.55121924247257     -0.82309482244712
  N   -4.12988615986500      1.82253629490091     -1.23193432601457
  C   -1.39813486480274      0.01671908807594     -0.00130512226884
  C   -2.37489291250266     -0.92708442809996      0.37402618427424
  C   -3.70516331265083     -0.73101384000583      0.75499521423428
  N   -4.80474047282047     -0.69655684817985      1.13370984838409
  C   -1.79454217163930     -2.22301403941414      0.35831956335638
  N   -2.40459446166177     -3.35235428313324      0.70002283103881
  C   -0.43921555766115     -2.09909378189555     -0.04261245924150
  C   0.39663746852457     -3.21989668366444     -0.02066661841503
  N   0.95431262111725     -4.23794991936207      0.05861862965721
  C   -0.13441646819634     -0.72594693323095     -0.20745539578553
  C   1.18053172836796     -0.29053136831476     -0.48471914262848
  C   1.98412949305439     -1.21752714105580     -1.20534777961860
  N   2.57692988718910     -1.90079573960039     -1.93275037973421
  C   1.83286968879928      0.85104730761349      0.00148412141565
  H   4.35823354937876      2.34126625418460      1.58646830661636
  H   2.07270456854807      3.68648750265454      1.85521781832324
  H   -2.15641065695004      3.42505837452216     -1.85990641828349
  H   -0.83461099453491      4.35259712132587     -1.25957260464235
  H   -3.35951757577041     -3.34684474497203      1.01461534536283
  H   -1.91530586744067     -4.23061607849255      0.66898841342883
