26
Coordinates from ORCA-job ./opt_b97-3c_parallel
  N   3.34024678740079     -3.02314599591234     -0.03161147847702
  C   2.46970127301534     -2.25620258444915     -0.02377438511015
  C   1.31316719681742     -1.41354927566036     -0.01171935897337
  C   0.11771428647948     -2.16021392620763      0.00570703592589
  C   -1.23134952347910     -1.90154868555963      0.01858845945317
  C   -2.03407812731581     -0.75639212106397      0.02186484720870
  N   -3.36657088455887     -0.91657792593440      0.03145755967449
  C   -3.85501689119542      0.35253489449800      0.03208179695451
  N   -5.17623444366615      0.58731748460279      0.07070723021475
  N   -2.94751216814257      1.34235432939485      0.02377103991374
  C   -1.75398953981011      0.69472014943880      0.01742688224840
  C   -0.59944688173563      1.45270910718947      0.00773695958845
  C   0.76716228594229      1.19001941222572     -0.00416691456218
  C   1.68896407745902      2.23404768099912     -0.01136535130046
  C   2.96854845311294      1.64876332907747     -0.02839407217579
  N   4.16108928476234      2.26629088304157     -0.06804785404858
  N   2.91049076293734      0.29955115895606     -0.03401979893447
  C   1.61004955983873     -0.04426105485307     -0.01944960749403
  H   0.32311428043186     -3.22299007538810      0.00783057186739
  H   -1.84221668927904     -2.79591797373682      0.02804727167353
  H   -5.50227123248102      1.52020725816557     -0.10086992736496
  H   -5.80195475911693     -0.17800411839790     -0.09875125307817
  H   -0.83203507858731      2.51192033354514      0.01113869312197
  H   1.44974129975219      3.28522575535582     -0.00968237880534
  H   4.23634583266070      3.24928352233002      0.11173387302371
  H   4.98469819355751      1.70289588834291      0.04926661815583
