23
Coordinates from ORCA-job ./opt_b97-3c_parallel
  N   3.98265177544160      1.85233724129726      1.01708396700670
  C   3.30185180467360      0.98255654914064      0.65347963696492
  C   2.50842839074746     -0.08457630676341      0.21951591231552
  C   2.98032702016649     -1.26115302896369     -0.40793234483924
  C   1.92293519317153     -2.06679774774595     -0.78352232664592
  C   0.71339814123348     -1.47168095320861     -0.35915094234778
  N   -0.39613703808629     -2.15020463459954     -0.28904154330926
  C   -1.61487791041067     -1.78676007420534      0.12342589698162
  N   -2.26846222509405     -2.70529716662788      0.86531319793643
  N   -2.34554679629464     -0.74098769623260     -0.25666169549894
  C   -2.04270003907538      0.51813385786849     -0.35910639430921
  N   -2.99232417953552      1.39175731706237     -0.78639684729693
  C   -2.53493796253173      2.61558424602295     -0.48633692646185
  C   -1.27191846001035      2.62665768105881      0.12718668701561
  C   -0.84008372987225      1.30406523896180      0.17092345240161
  N   0.41218047725619      0.98998588758325      0.45504252440141
  C   1.09006189386365     -0.09874163239019      0.20929302168904
  H   4.02502731886103     -1.48284912397259     -0.55953221794985
  H   1.98600030803871     -3.05079532137664     -1.21678682320021
  H   -1.86093779383503     -3.61907209584635      0.95695446350223
  H   -3.26481725815020     -2.61190020704225      0.95939498613898
  H   -3.13267965656943      3.48357063418948     -0.72807049181281
  H   -0.68319415228891      3.48062778029044      0.41671229461825
