26
Coordinates from ORCA-job ./opt_b97-3c_parallel
  N   -3.34175324773695     -3.11900613037151     -0.01526139249772
  C   -2.42403665905130     -2.40759747899950     -0.01304201333923
  C   -1.29493114428041     -1.53315951241262     -0.00953118531075
  C   -0.09006937389350     -2.24016995774682     -0.00034104380261
  C   1.26171751431973     -1.94131494133894      0.00966877931316
  C   2.02542868460701     -0.78349649655650      0.01741143793213
  N   3.37205048942347     -0.89877815336420      0.02813298128713
  C   3.80986106891286      0.37464692982635      0.03000022606154
  N   5.11339972889190      0.68103606756039      0.06489765387243
  N   2.85843889908729      1.34296274121047      0.02027767466301
  C   1.69875526991780      0.66221044181319      0.01178776266731
  C   0.51417070628437      1.39383828378590     -0.00162661416005
  C   -0.83413494149023      1.10049946903395     -0.01560910951630
  N   -1.66965403249030      2.16885626996638     -0.02401777044845
  C   -2.92398149772370      1.68487942570197     -0.02856391855649
  N   -3.97594990890268      2.52001764719042     -0.06419957731054
  C   -2.95867090338429      0.27251335236878     -0.02448025158930
  C   -1.64341546400051     -0.15973188817987     -0.01406324385348
  H   -0.25908893704693     -3.30972404296771     -0.00074311130958
  H   1.89395169958405     -2.82074893598303      0.01545978164363
  H   5.78851586163430     -0.04871812196560     -0.06655995062519
  H   5.39154870991894      1.63433203103735     -0.07440857204301
  H   0.69447272840182      2.46129407354296     -0.00426925921276
  H   -3.80455994402473      3.50116253298350      0.06555945892666
  H   -4.90402176964581      2.18050676453886      0.10313441680091
  H   -3.83722759071220     -0.35014473697418     -0.03162608509247
