27
Coordinates from ORCA-job ./opt_b97-3c_parallel
  N   4.87481552070728     -0.02119475079884      0.96985200269932
  C   3.83762773939651     -0.38691475843917      0.59356964094369
  C   2.61687344147006     -0.95507031953675      0.19711250748901
  C   2.46276170189639     -2.35477875291197      0.05654599010063
  C   1.14983174526717     -2.62845005726928     -0.24795120206455
  C   0.40359027222646     -1.42214825225773     -0.26360432641470
  C   -0.96775411185012     -1.49406596580907     -0.40675104798849
  C   -2.02259746244813     -0.60688032123093     -0.23871760344670
  C   -3.33408675194297     -1.05941967354796     -0.18717684390850
  C   -4.19603452206433      0.00232468585748      0.20371427496729
  N   -5.52964245825053     -0.12199646201203      0.40651179738388
  C   -3.42303998115927      1.15038927731877      0.37784731623189
  C   -2.07624234900978      0.85421711515650      0.09185255261728
  N   -1.20053599987293      1.83016308676299      0.04484167783764
  C   0.08865632410203      1.93081940019156     -0.19496068312012
  C   1.20657736810232      1.06601242321992     -0.18032484594996
  C   2.39590084420426      1.82965721268192     -0.38621526399854
  N   3.29101984002488      2.52656510234026     -0.63132282183883
  C   1.36457661097809     -0.32332433134739     -0.02254696869260
  H   3.25974655764860     -3.06778472105820      0.19026592697821
  H   0.72043599820580     -3.60633573346999     -0.39689973881922
  H   -1.30723642044377     -2.50808539886743     -0.59650756953929
  H   -3.64533701475368     -2.07843126238024     -0.36544640096840
  H   -6.08391044200797      0.70828944466981      0.51257895672631
  H   -6.01130966934391     -0.91092781445969      0.01498529109630
  H   -3.77377909205981      2.13880123379458      0.62553448712538
  H   0.38275583097651      2.96289239880300     -0.35988751344739
