23
Coordinates from ORCA-job ./opt_b97-3c_parallel
  N   -3.65993755778358      2.31443884512716     -0.00492339256410
  C   -2.68277677046957      1.69001997591149     -0.00421429314558
  C   -1.40322593931435      1.04649636662282     -0.00291287704106
  C   -0.34978080349695      1.95704450133876     -0.00319247816488
  C   1.04087670104729      1.86848973603189     -0.00232383862767
  C   1.99449926509333      0.86964509586699     -0.00087059617799
  C   3.36550039725168      1.20626129618622     -0.00046494421501
  C   4.13452714704283      0.04707566219443      0.00098210858008
  C   3.27905910950166     -1.05537427077197      0.00155859282530
  C   1.94156955483525     -0.61717043580962      0.00047853394233
  C   0.90950562416216     -1.52766989766265      0.00080083237521
  C   -0.48040087877922     -1.43806806384739     -0.00003007885209
  N   -1.16651397981878     -2.61494605450391      0.00068894098705
  C   -2.45622242048865     -2.25164327884672     -0.00042639703703
  N   -2.69592704401579     -0.93164351802851     -0.00183268286294
  C   -1.46639590232190     -0.36227499379067     -0.00163898943688
  H   -0.69434704759553      2.98225449928587     -0.00435536409483
  H   1.49530861759131      2.85406652171431     -0.00299522879147
  H   3.74085200541142      2.21791160127135     -0.00120410889033
  H   5.21250244070592      0.00659967258201      0.00156012633360
  H   3.57667077689785     -2.09234917114690      0.00265740307232
  H   1.22942400152136     -2.56389939888002      0.00194973877327
  H   -3.25654743817779     -2.97584223334495     -0.00021327538730
