27
Coordinates from ORCA-job ./opt_b97-3c_parallel
  N   5.77000260869549     -1.26665167517028      0.00071117136983
  C   4.81534123204740     -0.60446579351978     -0.00193453941875
  C   3.68735010760607      0.22723735060892     -0.00537542205626
  C   3.70807582625114      1.63644321582953     -0.01345596671229
  C   2.40980578067793      2.11406270146844     -0.01463124992975
  C   1.49553190318339      1.03905544709818     -0.00744435320175
  N   0.21453390630335      1.30709140651863     -0.00766053264490
  C   -0.87347033232488      0.56317109057105     -0.00242383970091
  C   -2.12779281085970      1.22506587113133     -0.00507929397623
  C   -2.34308915779185      2.60576251311829     -0.01280866178772
  N   -2.61592736425056      3.73610130831258     -0.01902220072431
  C   -3.17015076215701      0.26880922421469      0.00118314019358
  N   -4.47840672372209      0.52728074441334      0.00093339319493
  C   -2.56862810302108     -1.01544269030639      0.00794729081647
  C   -3.30678879624784     -2.20187983667443      0.01517197350700
  N   -3.96471933318043     -3.16178301220521      0.02110440103424
  C   -1.15627129954279     -0.88899708029697      0.00606458930061
  C   -0.34723534269914     -2.01413423224489      0.01192003780719
  C   1.02368672220534     -2.26047619404053      0.01215685882109
  N   2.12210207403787     -1.52256831097956      0.00663183158771
  C   2.34318383979364     -0.23370028534341     -0.00112224250140
  H   4.60641184881360      2.23244389479627     -0.01793981267553
  H   2.09871355981576      3.14535239270631     -0.02020440161818
  H   -5.15344498919435     -0.21635965850333      0.00512858406040
  H   -4.81527979369499      1.47351743887170     -0.00466858003043
  H   -0.91355972353747     -2.93947818642733      0.01781404992006
  H   1.25557628859546     -3.32136643564618      0.01825219446587
