29
Coordinates from ORCA-job ./opt_b97-3c_parallel
  N   2.78242759420167      4.09228061443468      0.00433188224064
  C   1.97030531585720      3.26299282361526     -0.00008051887568
  C   0.94431386804371      2.26560946193443     -0.00513482065418
  C   -0.31714159672528      2.87058270485611     -0.02378621933737
  C   -1.62596817186590      2.44749913451242     -0.02680144040788
  C   -2.25650701450025      1.21252088074573     -0.01007231848976
  N   -3.60591956210076      1.20145833371384     -0.00714282600848
  C   -3.92605028133221     -0.10664390599143      0.01195706578130
  N   -5.18743593925308     -0.53941003759551      0.02334821008731
  N   -2.88391982724046     -0.97323859666062      0.01931720418650
  C   -1.79273155563541     -0.19541127414309      0.00638585526659
  C   -0.53357329931027     -0.85439087353026      0.00123492229165
  C   -0.72432363923034     -2.27324557500402      0.00222309625992
  N   -0.89278310120594     -3.42030697888712      0.00144847131345
  C   0.80069990434805     -0.42520225960206     -0.00051029469391
  C   1.88297034651263     -1.34236276093287      0.00090387171122
  C   1.97787752395032     -2.73872362219810     -0.00584560420298
  N   2.34455965417244     -3.84408708464908     -0.01118748975903
  C   3.11112267426665     -0.62034282354823      0.01272731804829
  N   4.31838429842771     -1.18733544389672      0.01799591289128
  C   2.81947784671751      0.74621122373650      0.01673168652979
  C   1.44084030104864      0.94070079884631      0.00585365949113
  H   -0.24180650024682      3.95022407459183     -0.03556675966004
  H   -2.34764505631650      3.25418524502408     -0.04088848344046
  H   -5.94480717878035      0.11717042366478      0.01585179896003
  H   -5.37595699138533     -1.52425292195726      0.03565412647646
  H   4.40927653312943     -2.18990642670352      0.01317638053158
  H   5.15450998516039     -0.63431060152149      0.02716235710690
  H   3.55633714529254      1.53039064904542      0.02289804335568
