26
Coordinates from ORCA-job ./opt_b97-3c_parallel
  N   -4.00422194654003     -1.65438405841710      0.40095616920125
  C   -2.86526720276429     -1.83495416713868      0.25815471897085
  C   -1.50422692956851     -2.11927760323388      0.08751725533088
  C   -0.96331772777071     -3.41196333644688     -0.11944061995893
  C   0.39753820699802     -3.30160794875667     -0.27388010536377
  C   0.79513182627783     -1.93633969889306     -0.14698870073009
  C   2.12375410449649     -1.61450056014165     -0.13234458118169
  C   2.86389167713838     -0.41534701939859      0.05622730249887
  N   4.22015872288527     -0.61378667568132      0.23376962549496
  N   2.53582344983290      0.85558143053580     -0.03029869761980
  C   1.41403164763024      1.53887659904254     -0.10864120427381
  C   1.47890353884201      2.93519715070119     -0.26534004031837
  C   0.20608803085821      3.48889452416248     -0.19431905996277
  C   -0.73328986630293      2.47096224474474      0.01539340849850
  C   -2.11588970535581      2.65249062184959      0.14024681024891
  N   -3.25740944977963      2.84596147571586      0.24262909959064
  C   -0.05969634347990      1.20828899867618      0.04801080417384
  N   -0.76521499575356      0.11769432872215      0.13938074691386
  C   -0.45956989487845     -1.16145577813131      0.06097422192282
  H   -1.54271936535017     -4.31998413663319     -0.15161143010772
  H   1.08489149108803     -4.11729304197114     -0.43490886035301
  H   2.76939920701992     -2.47423507418508     -0.28086852745633
  H   4.52690545469261     -1.46003403009642      0.68010523506929
  H   4.73164935104625      0.21400766015552      0.48812869685026
  H   2.40609685708323      3.47032991493162     -0.38628894278361
  H   -0.03642401494539      4.53620353278731     -0.27582063675502
