26
Coordinates from ORCA-job ./opt_b97-3c_parallel
  N   -2.53603188142375      3.54901718675944      0.00582755963841
  C   -2.61828695592350      2.38912019675194      0.00400054398734
  C   -2.71384012138536      0.99119262388657      0.00183305284973
  C   -3.91092003778744      0.25650607169033      0.00047367575967
  C   -3.60684720009912     -1.09600172451039     -0.00152110573913
  C   -2.20872296011334     -1.27252247298096     -0.00152766648137
  C   -1.65826411044570     -2.54228666667316     -0.00358648503142
  C   -0.37301918241629     -3.09350983470067     -0.00438767393599
  N   0.86693125689035     -2.65133747122297     -0.00324805279417
  C   1.43631771479988     -1.46575386107971     -0.00088116000075
  N   2.79623230149712     -1.46521300998477     -0.00032122944090
  C   3.20575794405620     -0.19574426082489      0.00205201510362
  N   4.49856722809609      0.13720574647941      0.00330643222306
  C   2.10621956670231      0.72003741385127      0.00314186251424
  C   2.23503369270284      2.10976751310620      0.00552250304097
  N   2.41361744686833      3.26008905701275      0.00724716866103
  C   0.93806631503697     -0.05786344258993      0.00136950498659
  C   -0.31864003543515      0.54467126546581      0.00185776369045
  C   -1.61288613491246      0.08364537942640      0.00070202496576
  H   -4.89731135448707      0.69140093818938      0.00091556025278
  H   -4.32123179019662     -1.90368101221115     -0.00292787078595
  H   -2.41510128791392     -3.32015326379301     -0.00504509309649
  H   -0.40329899849628     -4.18104271668561     -0.00644085826874
  H   4.79328048969005      1.09615169820378      0.00428927767971
  H   5.19172220469390     -0.58871578514427      0.00169320153338
  H   -0.25909580409812      1.62941463747886      0.00360758638790
