25
Coordinates from ORCA-job ./opt_b97-3c_parallel
  N   4.10116759691405      2.25115164701584      0.02052530109519
  C   3.07801501266242      1.70393379306489      0.01235617406068
  C   1.80151774181322      1.05637266092998      0.00188104698211
  C   0.75532804744117      1.99379329224337     -0.00551190531838
  C   -0.62416205296996      1.95049958667011     -0.01309902834730
  C   -1.60906214920526      0.96467641118753     -0.01928238245392
  C   -2.96696043274775      1.28563669195034     -0.02489514752976
  C   -3.66813270043467      0.06950248660309     -0.03677804042758
  N   -5.00300678824410     -0.12437760315592     -0.08154819922414
  N   -2.83356921397273     -0.99761988700884     -0.04234879246128
  C   -1.57330923641660     -0.51460657757176     -0.03272597655523
  C   -0.54915285821226     -1.45142658530902     -0.02338994081990
  C   0.83331634579218     -1.41669538118873     -0.01013187754594
  N   1.44677059445637     -2.62928916173529     -0.00601333234457
  C   2.77212858782206     -2.39755944232460      0.00905394572270
  C   3.08522179311436     -1.04435378782851      0.01524368776602
  C   1.86710353381729     -0.34456846796337      0.00394318192453
  H   1.12822557483774      3.00978393891525     -0.00365980562628
  H   -1.05411831508417      2.94679397220063     -0.01238647278389
  H   -3.38316554833820      2.28062214081388     -0.02527497749981
  H   -5.33362300817181     -1.05833114719733      0.08657329279967
  H   -5.62416687070313      0.62528696936310      0.15862864823136
  H   -0.92412083009932     -2.46710343941719     -0.03255567116350
  H   3.46789762057729     -3.22404310796525      0.01491407383735
  H   4.06885052635183     -0.60628376619221      0.02603729458192
