29
Coordinates from ORCA-job ./opt_b97-3c_parallel
  N   -3.88819183748389      2.85555253080969      0.29076540476518
  C   -3.55564248264042      1.74849042708418      0.16778455309587
  C   -3.20298567788237      0.40211764188457      0.01932013998195
  C   -4.09924169838275     -0.65035784725526     -0.27434357901628
  C   -3.41084149360508     -1.84174346863346     -0.38044138060273
  C   -2.03567014418225     -1.62478305559451     -0.13641184645003
  N   -1.23287442090067     -2.64742914341812     -0.03931999550177
  C   0.06993832216760     -2.80944575422356      0.17284297999164
  N   0.37571788024788     -4.09213566270429      0.52680629834475
  C   1.17823142939473     -1.94865592007523      0.01047384985449
  C   1.35010030122768     -0.58962352427658     -0.05538116753051
  C   2.65942892652363     -0.03742760143129     -0.18094538905157
  C   3.84507125584075     -0.75437450317888     -0.34071504728619
  N   4.84567173876389     -1.33615244224206     -0.47254956812309
  C   2.59695347897756      1.36767753962051     -0.06199761831049
  N   3.62486984111798      2.21564249794492     -0.11284933262792
  C   1.23754284157270      1.72969107625741      0.12400075860542
  C   0.81779841532447      3.05529533351895      0.25375236626834
  N   0.58837649240563      4.19098622686389      0.35667185379088
  C   0.42931197970457      0.56763288326802      0.10901055360668
  N   -0.87572167948904      0.70901785522077      0.18854099870848
  C   -1.88377342816440     -0.11182693732099      0.07735004708415
  H   -5.16399899130419     -0.52113666828858     -0.38770436500382
  H   -3.83117545231338     -2.81764531290446     -0.55549851516199
  H   1.32683019961083     -4.40684371924849      0.57627437179336
  H   -0.34660869156185     -4.78215421559369      0.42474249948672
  H   2.11582383902692     -2.49151549625849     -0.04986685919216
  H   4.56165577465848      1.88671152680042     -0.26220852901432
  H   3.47723066564507      3.20468013447441     -0.01641082410490
