29
Coordinates from ORCA-job ./opt_b97-3c_parallel
  N   4.86557789834955     -0.97757059813377     -0.23871366123250
  C   3.93037244512193     -0.29484932838484     -0.12916717607485
  C   2.90276319220755      0.63378948399256      0.07952680742153
  C   3.17654860821252      1.88248705571848      0.74130163389632
  C   2.02354981164409      2.58073646909978      0.92060511078714
  C   0.94804807913335      1.83297452707091      0.34106656487490
  N   -0.17944137223423      2.41676184406597      0.09911400380544
  C   -1.38357418276578      2.11186783472771     -0.36158794656669
  N   -1.97063502016080      3.10264266701227     -1.07673305679543
  C   -2.14735805371441      0.96890240419767     -0.01566399024905
  C   -3.54116090760206      1.19574570062896      0.05369468819758
  N   -4.68598477075776      1.39916317737231      0.09527478401763
  C   -1.72100625325279     -0.35562654246459      0.22528985353724
  C   -2.60267771835526     -1.36547749679034      0.57662458438272
  C   -1.93159135112430     -2.58518066946728      0.33508479408897
  N   -2.39994541222192     -3.82548862321992      0.51233442995554
  N   -0.68310373928234     -2.39763579230251     -0.14225099177198
  C   -0.46962278456262     -1.06866259128801     -0.17610747303155
  C   0.83964085207054     -0.65410912065681     -0.48794103024110
  C   1.61496914521815     -1.67750318153088     -1.10902134244334
  N   2.21777001788718     -2.45909603062405     -1.71774695856856
  C   1.51883091392791      0.51931551092222     -0.12029894473481
  H   4.16942858524332      2.18785619359985      1.03048606024646
  H   1.90743623058647      3.57518889465631      1.31577557260631
  H   -2.94889223787738      3.04722690720886     -1.30123759095803
  H   -1.56563190269508      4.01997119798957     -1.00846539533236
  H   -3.63254025155856     -1.23934364569516      0.86578188673415
  H   -1.79017805188925     -4.60244916301273      0.32830734213766
  H   -3.27056334114859     -3.99701594649016      0.97775705090985
