26
Coordinates from ORCA-job ./opt_b97-3c_parallel
  N   -2.79165618444775      3.16046511586665      0.01993121264246
  C   -1.97202778763229      2.33963789302208      0.02020990208864
  C   -0.86411126768062      1.43137602940225      0.01543254065482
  C   0.36748868699656      2.10919396960576     -0.00386590871178
  C   1.70104354453972      1.75160258581520     -0.01023191884198
  C   2.43856169964598      0.57181280487004     -0.00553807970470
  C   3.83912066334058      0.60963754532696     -0.01297869613986
  C   4.35100885989132     -0.69653959557445     -0.00985963707760
  C   3.29217493141531     -1.58784537070888     -0.00131197772594
  C   2.06920727573759     -0.86589464789616      0.00225296972316
  C   0.87332698588634     -1.53627514551311      0.01033579647408
  C   -0.48286127026460     -1.18299145962375      0.01908963290666
  C   -1.46333190954825     -2.17476370598217      0.02951863433341
  C   -2.71210500930631     -1.51753736482376      0.04270801697401
  N   -3.94297234198659     -2.08063001706287      0.10235457355938
  N   -2.56878529679795     -0.18442309983731      0.04318457043019
  C   -1.23800703111019      0.08151078031292      0.03045276084224
  H   0.23114531047247      3.18230981257893     -0.01206795292685
  H   2.34699678470481      2.62382226693508     -0.02108200175259
  H   4.42261358828712      1.51763020141038     -0.02050957683003
  H   5.39770990903959     -0.95908530362863     -0.01367803871574
  H   3.36001275441296     -2.66475509767297      0.00288964679098
  H   1.00539174535434     -2.61459044402124      0.01038001277123
  H   -1.28413826444527     -3.23872819178076      0.03486294659434
  H   -4.71787215531950     -1.46751512883444     -0.08486904805789
  H   -4.05507153118535     -3.03235711668577     -0.19470914510066
