27
Coordinates from ORCA-job ./opt_b97-3c_parallel
  N   -5.38229079162600     -0.82000911356437     -0.00508038045834
  C   -4.42215936337446     -0.16486253141718     -0.00465679382285
  C   -3.25317658413419      0.61041272786253     -0.00355457936429
  C   -3.20368472288256      2.00949229007952     -0.00317125411251
  C   -1.86836249474452      2.39540318337607     -0.00196338532898
  C   -1.03719486345174      1.25674580716193     -0.00155253921923
  C   0.34149353265718      1.41430795838493     -0.00029149569574
  C   1.44335450058402      0.58015071238728      0.00054202675928
  C   2.74981688852499      1.16556652147705      0.00195224278854
  C   3.01570597774077      2.54238597478586      0.00255795539461
  N   3.22246877767638      3.68644741565623      0.00286157944753
  C   3.71633920191302      0.15158518411922      0.00264324320700
  C   3.06214815265136     -1.06955718589297      0.00166581137637
  C   1.66247793712956     -0.87210719484406      0.00035009431052
  C   0.78243557576754     -1.97158067976590     -0.00087764775773
  C   1.43623633300743     -3.24760116665241     -0.00071097122739
  N   1.93555443600968     -4.29420180620532     -0.00046536732396
  C   -0.60711759900108     -2.12504574067491     -0.00222253719402
  C   -1.70654944591297     -1.27538973474129     -0.00286124874657
  C   -1.91900702393283      0.08853051913162     -0.00259877420214
  H   -4.06184423235916      2.66070464608384     -0.00371317352197
  H   -1.50593920537648      3.41141546179984     -0.00139130966396
  H   0.62410899401945      2.46231774755957      0.00020919920726
  H   4.78214369929917      0.30760349764936      0.00373723677489
  H   3.54557283218821     -2.03187208355813      0.00187159847992
  H   -0.90150934942602     -3.16572224910495     -0.00287115056494
  H   -2.63596309494673     -1.83500977259336     -0.00382578324134
