26
Coordinates from ORCA-job ./opt_b97-3c_parallel
  N   5.45171599844038      1.45320879429535      0.00626941256371
  C   4.56749011128198      0.69915523534982      0.00409401130844
  C   3.48934280422199     -0.19833464640316      0.00149585491111
  C   3.59192401163224     -1.59303695756273     -0.00219497064724
  C   2.30571239925991     -2.12571686252247     -0.00386817415296
  C   1.35570862430531     -1.08890114780254     -0.00130965262968
  C   0.00112892732920     -1.38815997023423     -0.00239244033655
  C   -1.15890948190157     -0.63880369878826     -0.00060091614318
  C   -2.43033563487380     -1.28921074856075     -0.00257802159361
  C   -2.61725446371908     -2.67999835948546     -0.00646135881438
  N   -2.74393290147291     -3.83524454594627     -0.00971479251020
  C   -3.45526219480716     -0.33744039475423     -0.00014184571584
  C   -2.87328855489821      0.92921836389037      0.00340386367541
  C   -3.56858014379231      2.14878415556192      0.00664797619103
  N   -4.17148837435246      3.14078056552675      0.00932758857716
  C   -1.44663289420309      0.80972678661909      0.00327570582614
  N   -0.74583150612854      1.92566663195513      0.00635437259488
  C   0.53291193763000      2.22341249585079      0.00732085302413
  C   1.74009906270629      1.50321861220048      0.00564297470301
  C   2.10558937028611      0.17610399887540      0.00220672318995
  H   4.51611920734492     -2.14673132504250     -0.00347604948570
  H   2.05956518824760     -3.17588644098436     -0.00670687843138
  H   -0.18625916101172     -2.45744640333292     -0.00529531099527
  H   -4.51047362644984     -0.55038488736975     -0.00089445716024
  H   0.69668406408384      3.29729482504026      0.01016012029431
  H   2.59166148084095      2.17606837102435      0.00759071675696
