26
Coordinates from ORCA-job ./opt_b97-3c_parallel
  N   -4.87912040582721     -2.18335239712839     -0.63204423283294
  C   -4.22680231158317     -1.24393116526846     -0.42942558353443
  C   -3.46450618725730     -0.09266228762597     -0.18818600970538
  C   -3.94997286626042      1.21168302082108     -0.08392489937123
  C   -2.88182693223668      2.06143964011633      0.21008976780248
  C   -1.68358889848931      1.33119163517666      0.27044397468942
  C   -0.46126627639916      1.97329778766167      0.35105459235773
  C   0.85958042929117      1.58364689726432      0.19440903411871
  C   1.84714798883229      2.58796447104476      0.09278574774660
  C   3.07149697312770      2.01674707384558     -0.19897112170006
  C   2.91211612950397      0.62009203348105     -0.24922128297639
  C   3.97578056760778     -0.22441487943456     -0.60738926813435
  N   4.90822870254953     -0.82374111974052     -0.95520524257970
  C   1.54808190738955      0.29025450138255      0.01773362468544
  C   1.10167986891073     -1.01851660057311      0.25078921185033
  C   2.09854435359534     -2.02494874499092      0.43569664193766
  N   2.81760123787073     -2.90504940250563      0.66900591125975
  C   -0.18137400496380     -1.61403720642648      0.35881371136101
  N   -1.41641661338471     -1.22581236748389      0.14465385133363
  C   -2.04675986972061     -0.08603947361933      0.05024571664432
  H   -4.98064255763906      1.50184014777035     -0.20324661395600
  H   -2.95177790288537      3.13060909696807      0.33858600705559
  H   -0.56128203121650      3.04746514238483      0.47167748361286
  H   1.64846531728205      3.64345511340718      0.19009729169155
  H   4.00101316741511      2.53098832257836     -0.37773856913086
  H   -0.12285585841972     -2.67493045913512      0.57826737575199
