24
Coordinates from ORCA-job ./opt_b97-3c_parallel
  N   -3.99569111696753     -2.33637211983474     -0.01775440362772
  C   -3.02570914291854     -1.70055695569416     -0.01094908683090
  C   -1.75341051503290     -1.04446053377138     -0.00240754817438
  C   -0.68467968986123     -1.94888225798755      0.00398164838831
  C   0.69371670750583     -1.84894922975885      0.01348269864294
  C   1.61646298760297     -0.81151992874748      0.01983235685350
  N   2.91754047715283     -1.15599092160169      0.02559265083254
  C   3.64098113014362     -0.00779094569133      0.02488367292739
  N   4.98261709962543     -0.06950315550702      0.05673845022457
  C   2.82546437010182      1.13509456135968      0.02001073854336
  C   1.50545181032441      0.68629372556756      0.01485575918093
  N   0.51529987007714      1.56473622885600      0.00869704791837
  C   -0.79052654336049      1.46297692201179      0.00331971898405
  C   -1.57298335594425      2.64376810393493     -0.00059548698682
  C   -2.89348399987622      2.25652408085627     -0.00614929841279
  N   -3.04778004934781      0.90418056461716     -0.00698984458522
  C   -1.82501077911185      0.35664283914555     -0.00107028032975
  H   -1.02234608741988     -2.97678798488493      0.00155318792038
  H   1.19615651037926     -2.80868699415092      0.01822951962311
  H   5.53856878433208      0.74797335711570     -0.10771937980031
  H   5.41753915671184     -0.96650637822231     -0.06725115162618
  H   3.12229894098955      2.17030886408257      0.02232067954150
  H   -1.16116014885845      3.63845279818109      0.00118803209428
  H   -3.76805890564765      2.89009430872408     -0.00975991750115
