26
Coordinates from ORCA-job ./opt_b97-3c_parallel
  N   -4.55637079401549     -1.59962700760434      0.96286812802248
  C   -3.64830346445728     -0.94036782253730      0.65185669246978
  C   -2.62983606709409     -0.05688564377513      0.29538816431132
  C   -2.82493980340769      1.32989531458782      0.11554902496410
  N   -3.96549847000977      1.98396882800724      0.37627688557130
  C   -1.62123776759566      1.90899856766575     -0.35447688998008
  C   -0.64029647579350      0.93368651496759     -0.44613037171628
  C   0.70636009926376      1.25931612119633     -0.57486481885335
  C   1.86578708539490      0.54727184291240     -0.34566507336125
  N   3.01192348765680      1.24298257789903     -0.16673013701485
  C   3.93321223589231      0.35432817336533      0.26735234103210
  N   5.16487374054433      0.77910291895592      0.59669676865281
  C   3.44257597370263     -0.96873039340549      0.32823448945563
  C   2.12865190903137     -0.91808490467807     -0.10361819622144
  N   1.44140472094933     -2.01180442000913     -0.42590918173598
  C   0.17625070467454     -2.22988457291415     -0.66235997783527
  N   -0.95383498655045     -1.61721206944563     -0.31152423964469
  C   -1.30784154251014     -0.38334218313752     -0.11834930794973
  H   -4.78847785252471      1.46845957379778      0.63657263429498
  H   -4.09273742750531      2.93187458598585      0.07518253697531
  H   -1.46248942510860      2.96520628339958     -0.50796456294762
  H   0.89995160517335      2.31907132378150     -0.69806420243516
  H   5.42192775548669      1.71842222613423      0.35041999118583
  H   5.89989925821806      0.12383224626864      0.78290435814952
  H   3.98967830273507     -1.86777218133943      0.55754128175012
  H   -0.01408317364862     -3.19610104657787     -1.12432662053891
