29
Coordinates from ORCA-job ./opt_b97-3c_parallel
  N   -4.77271539129585     -0.94730637992245      1.82810197327884
  C   -3.79854857635602     -1.08806708746499      1.20888424564915
  C   -2.62112531194057     -1.37163464379278      0.50460939252259
  C   -2.30291221235475     -2.66308295242077      0.04200723244092
  C   -1.06842010840603     -2.64583535076720     -0.58040435943462
  C   -0.51338210104542     -1.35222108876266     -0.48821561259769
  C   0.84388454700308     -1.18687656524408     -0.68572405771826
  C   1.73220184737585     -0.19626153921690     -0.29480424405758
  C   3.10898204000306     -0.39913781907485     -0.10441692036760
  C   3.86164533916760     -1.54258471850785     -0.35646899531094
  N   4.52507723315004     -2.48001425339398     -0.55414887445765
  C   3.58830613163465      0.79274313528004      0.53936039158106
  N   4.83192977182976      0.98439991625083      0.97875623695046
  N   2.64124061249371      1.73120603387143      0.65804856774223
  C   1.51006729912942      1.20197145349903      0.13630823519081
  N   0.49746285868847      1.98150707079281     -0.12688234131277
  C   -0.76084521744638      1.87601267220630     -0.45434745568673
  N   -1.25074759263782      2.88637519097907     -1.20526518549607
  C   -1.72258150024472      0.89409067496737      0.03046274322639
  C   -2.97397008403212      1.48732414404055      0.33037291913845
  N   -3.95814923041041      2.08337756944271      0.49658632005942
  C   -1.57456108178003     -0.48173553079645      0.11837196852377
  H   -2.93255725895483     -3.52621101261079      0.18710329611184
  H   -0.53797096725972     -3.50554256187375     -0.95640757159965
  H   1.33245429852327     -2.08597292626923     -1.04758290097270
  H   5.06724978440860      1.85121244482775      1.42724961522287
  H   5.54202061461131      0.28531786575846      0.86098641215900
  H   -2.24249279379703      2.99935345271336     -1.32323992633909
  H   -0.67476903325729      3.70467642048981     -1.30531420744832
