26
Coordinates from ORCA-job ./opt_b97-3c_parallel
  N   -4.63297336004237     -0.99824509706289      0.32788308646299
  C   -3.74623273067729     -0.25114865435633      0.22656892212057
  C   -2.65557963150560      0.61759779118442      0.10566275747933
  C   -2.71402767896111      2.01135888752194      0.04340077828327
  C   -1.41725149355417      2.50033142540139     -0.08646958444037
  C   -0.49825787518883      1.43412521203229     -0.10134798701195
  C   0.86871363097964      1.68104249860864     -0.16738827298067
  C   1.99703848662878      0.89751204320228     -0.09684489732017
  C   3.27628105664008      1.48701594770462     -0.04845841754073
  C   4.24449662464988      0.50259375226235      0.15569584820699
  C   3.61963263892993     -0.73809159183966      0.22550048702254
  C   2.22479792948843     -0.58033385137702      0.05882742989667
  N   1.47601097649915     -1.65948888950283      0.00663309340580
  C   0.19123319264453     -1.92833130100646     -0.14056110297279
  N   -0.04253171824877     -3.27229019991542     -0.39239967110227
  C   -0.98072055926459     -1.14108111902430     -0.04982603304591
  C   -1.27835756352992      0.19720155965448      0.00798958501453
  H   -3.61832196630769      2.59579891947252      0.08907123013220
  H   -1.14072691798912      3.54116021592533     -0.15046531502587
  H   1.09481426892500      2.74059351680961     -0.24960434869936
  H   3.45721000125386      2.54811590756996     -0.12924600468564
  H   5.30593106048076      0.67838913587848      0.23967317965015
  H   4.08957593898855     -1.70012578817275      0.34690090834801
  H   -0.94626195426860     -3.65075964926939     -0.16788340285971
  H   0.73385765536133     -3.87134077498545     -0.16908003709787
  H   -1.87521383323188     -1.75519171231586     -0.01446958203967
