26
Coordinates from ORCA-job ./opt_b97-3c_parallel
  N   4.33921773644316     -2.31490793185835     -0.61473200026006
  C   3.77205577327271     -1.33728856779042     -0.33681151431064
  C   3.07067307635709     -0.17039475889824     -0.01634985254086
  C   3.61946683662453      0.97567597790119      0.61378737455132
  C   2.62335321649104      1.90138504999399      0.82341528405646
  C   1.40081440670391      1.40202050303448      0.29515818549398
  N   0.38234577712117      2.20598029678346      0.11848454776781
  C   -0.84960215294459      2.00175184462594     -0.34101449157751
  N   -1.37354303647231      3.01613299274295     -1.07068239602663
  N   -1.71482836392432      1.03784275195533     -0.02528104218983
  C   -1.59641356740749     -0.25216629001349      0.08672449408421
  C   -2.72893871620336     -1.05563642006253      0.45563871717773
  C   -3.95854001971314     -0.53978419205418      0.88035555128440
  N   -4.97932744984046     -0.11145413700894      1.23544863420021
  C   -2.42373774564024     -2.39424734964572      0.19448654173355
  C   -1.11756200959820     -2.48505437307237     -0.29277877239208
  C   -0.53194427923178     -1.21088800544183     -0.32946843996256
  C   0.83358527461202     -1.03769168282715     -0.48541026058297
  C   1.67397629567100      0.01545027419045     -0.18256480077289
  H   4.66038448867931      1.08468032756605      0.87212187598634
  H   2.73329103930770      2.89368478390005      1.22709386319638
  H   -2.37538068312360      3.05317415206951     -1.15180905319234
  H   -0.87206214197573      3.88740374347231     -1.07427770755393
  H   -3.10055667884443     -3.21954051992953      0.34497298095574
  H   -0.60182014789293     -3.40108692021419     -0.53365035986525
  H   1.35685754862940     -1.94983360691940     -0.75597594356138
