26
Coordinates from ORCA-job ./opt_b97-3c_parallel
  N   -4.81417823894062     -2.03855706272038      0.68129826316076
  C   -4.12270835762202     -1.15587646916436      0.37563833966460
  C   -3.33815011720890     -0.06042185357637     -0.00130459406431
  C   -3.82683132584460      1.09784120021207     -0.68822708699686
  C   -2.79366985927012      1.95273834260510     -0.95268330265953
  C   -1.59103353705897      1.41184161493310     -0.39492603964717
  N   -0.53601994094550      2.14101438948919     -0.25816504160885
  C   0.67570450691380      1.97663153369461      0.27182615891842
  N   1.14598173834893      3.08135693614122      0.88652155992177
  C   1.55777572353039      0.86391491394356      0.09010417856819
  C   2.92244278661075      1.24034480085269      0.16102543993375
  N   4.00282489508784      1.64791874823511      0.29529868583503
  C   1.26000119304950     -0.49940926780182     -0.05522663436146
  C   2.22777311417435     -1.49594632774860     -0.27687002123502
  C   3.52696361759961     -1.38293973372745     -0.78581263622102
  N   4.59730529210187     -1.37218499019617     -1.23952630631171
  C   1.62628966684284     -2.73095066999805      0.09330074130340
  N   0.37793400742302     -2.60508981926240      0.49812975481166
  C   0.03708816614478     -1.28168298832966      0.36336283766717
  N   -1.22935190723911     -1.00235033319732      0.49546226894521
  C   -1.94530518260104      0.04173273118514      0.14404027960416
  H   -4.86434301651089      1.25347709004290     -0.93644437888321
  H   -2.85479847163506      2.93005669660928     -1.40089134345932
  H   2.10815747443059      3.14481647145629      1.17140777712614
  H   0.63316437790507      3.93674477703793      0.76511292506404
  H   2.10820172501516     -3.69603246831952      0.04073445242232
