25
Coordinates from ORCA-job ./opt_b97-3c_parallel
  N   -2.82501751033744      3.14731792882776      0.00614196210948
  C   -1.99726558657599      2.33465619035575      0.00900542038855
  C   -0.88222805954529      1.43624008056672      0.00763427884532
  C   0.34755817247535      2.12946123278260     -0.00795909745392
  C   1.68015557738162      1.79223303699505     -0.01273576329798
  C   2.42381578222063      0.60822969637278     -0.00726805556764
  C   3.81880024892868      0.61669975827830     -0.01402451629259
  C   4.23684103890693     -0.72258563227116     -0.00904473878478
  N   3.21788801821265     -1.58245219716537     -0.00020929606815
  C   2.07031072632418     -0.82493526907145      0.00161489990323
  C   0.88729029974178     -1.51709792559209      0.00998489706849
  C   -0.47166582458280     -1.17886659504395      0.01589344599482
  C   -1.43855712878940     -2.17565275294511      0.02559803486073
  C   -2.69705193250045     -1.52812533725006      0.03361133168126
  N   -3.91427027234182     -2.10320924658257      0.07961447040632
  N   -2.56961456008290     -0.19320914459523      0.03155586850576
  C   -1.24367923704524      0.08618622139155      0.02175190915114
  H   0.19526167641136      3.20061723021244     -0.01613935883934
  H   2.31894634837716      2.66919881456457     -0.02298554466924
  H   4.44490821021387      1.49522238143325     -0.02186717821718
  H   5.25605892716272     -1.08255289804337     -0.01185475496397
  H   1.06515662281543     -2.58691165027534      0.01224847095354
  H   -1.24934919565466     -3.23741694222510      0.03147503564692
  H   -4.71131448189551     -1.50878918575411     -0.06700515656292
  H   -4.02118200582086     -3.07567190026582     -0.13896772679785
