25
Coordinates from ORCA-job ./opt_b97-3c_parallel
  N   -4.37244158800790     -2.28320261105595     -0.00577570733563
  C   -3.34588912739947     -1.74332895574704     -0.00496027791184
  C   -2.02046331247266     -1.20691425342199     -0.00368086170400
  C   -1.03783736779677     -2.19513816900782     -0.00309431464050
  C   0.34613827523350     -2.22382096790303     -0.00182206100059
  C   1.38643170809392     -1.30484142088987     -0.00031447119849
  N   2.62919207198461     -1.83324312144728      0.00077902804756
  C   3.49915228087678     -0.80221961004988      0.00242936321011
  N   4.81704981643548     -1.02538114368939      0.00366783812211
  C   2.84204605110735      0.44877137757880      0.00243185907700
  C   1.48176365161710      0.18409653803434      0.00068489683215
  C   0.51056638538271      1.21086249795458     -0.00006909140721
  C   1.07492811149942      2.52741836927685      0.00127772170069
  N   1.64814115136582      3.53545682559885      0.00264369537869
  C   -0.88490698713543      1.21276982993523     -0.00187458784958
  N   -1.48932342987768      2.43484734023318     -0.00231004519960
  C   -2.79251325557838      2.16903623023936     -0.00389869170578
  N   -3.13473546719085      0.86391356787849     -0.00453462937626
  C   -1.96489144233343      0.20042600271491     -0.00335521762393
  H   -1.46330132740289     -3.19000012431171     -0.00383610044693
  H   0.74658902439262     -3.22989742144489     -0.00191823138347
  H   5.15534929849303     -1.97069205537166      0.00416224479657
  H   5.48059500969311     -0.27465641423946      0.00582691731411
  H   3.30499720893901      1.42031886187703      0.00350269027229
  H   -3.53794367971902      2.94971607385834     -0.00463858736748
