25
Coordinates from ORCA-job ./opt_b97-3c_parallel
  N   4.68818954993763      1.90434147103184     -0.00379872316692
  C   3.95730324114133      1.00033064075599     -0.00240096870987
  C   3.05975713617491     -0.07721349150949     -0.00083823469836
  C   3.41012172708627     -1.42958201708476      0.00062704136854
  C   2.24052808537970     -2.18532400050282      0.00194571889258
  C   1.11912123910396     -1.33750387569442      0.00137417890732
  C   -0.15835142988993     -1.87969347025216      0.00256728461900
  C   -1.44871687250749     -1.38372592262331      0.00259065649609
  N   -2.43212165815402     -2.33369018164726      0.00427170185458
  C   -3.60371111625088     -1.68607239737220      0.00409628042344
  C   -3.44427676431851     -0.29971825711974      0.00229442127318
  C   -2.06497389834596     -0.04596954934663      0.00126650098739
  C   -1.54189643683968      1.26435579100304     -0.00066007259778
  C   -2.53917923835622      2.29328382826320     -0.00151878648130
  N   -3.33095003758805      3.14062458176087     -0.00198774401611
  C   -0.25572159584368      1.79927645899481     -0.00191603650424
  C   1.04022824646865      1.28598199857619     -0.00176675617750
  C   1.62934326625863      0.04062993578708     -0.00045323980056
  H   4.41892120764949     -1.80815839409042      0.00071340189782
  H   2.18686137796399     -3.26248873435036      0.00324724525999
  H   -0.17136889661297     -2.96378837207761      0.00387929067762
  H   -4.53428280139277     -2.23374051345029      0.00527372700095
  H   -4.22657063126133      0.44085540321005      0.00179188017315
  H   -0.26069182184692      2.88094835864782     -0.00330759146871
  H   1.77519387924385      2.08413491099057     -0.00304041951028
