29
Coordinates from ORCA-job ./opt_b97-3c_parallel
  N   -5.33345620737302     -1.22106832767727     -0.04307923249314
  C   -4.31624925134117     -0.65352925735514     -0.01951264481490
  C   -3.13155657843402      0.08245188675203      0.00393418384809
  C   -3.08749338629334      1.49633531500004      0.00990692768177
  N   -4.16159211223001      2.30696058750357      0.04148663062929
  C   -1.73508666899671      1.88845780556843      0.01919502127901
  C   -0.91689295684120      0.75960878128205      0.01792311264150
  C   0.47131360354640      0.90012893866386      0.02574775903294
  C   1.54647978399705      0.04409242321968      0.02627294893914
  C   2.87121445097023      0.56420283973109      0.03385174295831
  C   3.24298291668069      1.90818784980979      0.02868023453579
  N   3.59369061473132      3.01973879104793      0.02000198902359
  C   3.80008931518798     -0.50802012058255      0.02733361846708
  N   5.13877209277315     -0.36529706484911      0.06670394514334
  C   3.07738622911666     -1.70856574998027      0.01681733543453
  C   1.70493993993592     -1.44621559375629      0.01472508301214
  N   0.87663071198475     -2.48540654864652      0.00268477479554
  C   -0.42855594443956     -2.61681862362533     -0.00237208190859
  C   -1.55660388892585     -1.77954852514939      0.00059888352446
  C   -1.80031989124188     -0.42438626827663      0.00819489030228
  H   -4.05551022849277      3.28968139473107     -0.12673238540889
  H   -5.07838659066677      1.92091435867854     -0.10084785052973
  H   -1.38007796924423      2.90720950837149      0.03129013947536
  H   0.76975502394068      1.94433483385704      0.03402994034258
  H   5.73024769765893     -1.15396538000854     -0.11665133157307
  H   5.54433491187710      0.54331500666775     -0.07399147751188
  H   3.48700009761673     -2.70514798340952      0.01478712011430
  H   -0.71859209217710     -3.66567520233148     -0.01128088290348
  H   -2.46932695181997     -2.36679179823637     -0.00539934343737
