30
Coordinates from ORCA-job ./opt_b97-3c_parallel
  N   4.01766798599313     -2.76979395012365     -0.59455715079676
  C   3.01723472621947     -2.21650690962589     -0.39491964376237
  C   1.73365585963413     -1.61836992034309     -0.21577058179793
  C   0.71997075079759     -2.57317375229503     -0.29808478028236
  C   -0.65435638237077     -2.59130844879542     -0.15657775038703
  C   -1.66815209663903     -1.65824122416821     -0.00590655179090
  N   -2.90842913119789     -2.16798012472486      0.19011787835455
  C   -3.75538459061780     -1.13585521997105      0.23571024282215
  N   -5.05731475480391     -1.28757032932557      0.46251803694061
  C   -3.09055793811637      0.11752141433494      0.02072303352511
  C   -3.80981701087029      1.31284611954002      0.11134298818031
  N   -4.57216039880466      2.18075568685188      0.25109346030146
  C   -1.72782796896660     -0.17991640609088     -0.12857220648335
  C   -0.73230074170498      0.79083615346375     -0.37217611182782
  C   -1.23112597153842      2.06530334638924     -0.78209268079176
  N   -1.66745909402809      3.05109011704539     -1.21035942895080
  C   0.66489730549057      0.80631947824087     -0.19162321492209
  N   1.21337043926004      2.04222617384612     -0.15800697430741
  C   2.51042364537509      1.90558154500567      0.12282696913078
  N   3.31692479587640      2.94929732128462      0.28942097133275
  C   2.88794738832517      0.52777385398302      0.22615770250031
  C   4.19604865340098      0.16437663199589      0.55690160808949
  N   5.30937592196891      0.04980054277367      0.87546918599192
  C   1.72421637413385     -0.22170471478755     -0.00266234105553
  H   1.11824942609068     -3.56632599287812     -0.45973886941179
  H   -1.06501585581537     -3.59297001963885     -0.14485772604344
  H   -5.67179026536591     -0.49382463126513      0.50649552348093
  H   -5.42766809837917     -2.20595920913841      0.62800448962325
  H   4.28557999549602      2.82566523145220      0.52487093139622
  H   2.94784891885741      3.87861534646463      0.19375570034160
