27
Coordinates from ORCA-job ./opt_b97-3c_parallel
  N   3.74076764406530     -2.82490358376996     -0.00004890544921
  C   3.47718661779449     -1.69351386799365     -0.00152414024830
  C   3.20755909870019     -0.31833282901253     -0.00296086046496
  C   4.17165350036146      0.70661964662918     -0.00430287174968
  C   3.52727748825760      1.93356354598666     -0.00539122810529
  C   2.12929785569139      1.74765366406863     -0.00476528768421
  C   1.27030670356589      2.82480993428751     -0.00546901868036
  C   -0.12130470524819      2.99745245522433     -0.00507803603586
  N   -1.17043134432146      2.20462826526879     -0.00399319807883
  C   -1.33017213519587      0.89666405301024     -0.00285032706222
  C   -2.65417440659741      0.39686137537567     -0.00212658281406
  C   -3.82837174731376      1.15565672674488     -0.00252783655315
  N   -4.85567010498537      1.70027871552723     -0.00275536160925
  C   -2.64387996345476     -1.02060101584976     -0.00109769425643
  N   -3.71325697886697     -1.81461470031757     -0.00026864123517
  C   -1.29218857209635     -1.44034746885501     -0.00109256681945
  C   -0.91516364594464     -2.78608913894616     -0.00030063808402
  N   -0.71441274402779     -3.93141765457777      0.00039486438806
  C   -0.43383129436885     -0.31137881298240     -0.00215010413476
  N   0.86214195056623     -0.52168122982366     -0.00227145517024
  C   1.90917363502420      0.26404093061231     -0.00322735864148
  H   5.23747232057468      0.54576791264442     -0.00442496775198
  H   4.01074770723226      2.89769282316274     -0.00651094517391
  H   1.78729984878082      3.77890066948678     -0.00655540451733
  H   -0.40974190278276      4.04521624832887     -0.00589237095553
  H   -3.61126434334142     -2.81432477679027      0.00025626368217
  H   -4.64141727686892     -1.43016143503951     -0.00050820019454
