24
Coordinates from ORCA-job ./opt_b97-3c_parallel
  N   -2.26534772108641     -3.42720577659541     -0.00322390195192
  C   -2.28395038359096     -2.26608737861216     -0.00319050199642
  C   -2.36078358689178     -0.86589611573260     -0.00305478975120
  C   -3.53447047535501     -0.11448518144088     -0.00383907835972
  C   -3.19788975150123      1.24005124456492     -0.00331801424887
  C   -1.80576926678727      1.40433678944757     -0.00218114686601
  C   -1.25699753669814      2.67974153835282     -0.00139087885273
  C   0.02772076213534      3.20285033831497     -0.00019105918117
  C   1.29590455877163      2.64234940378716      0.00062242189497
  C   1.79325881767258      1.34740637484351      0.00056427533810
  N   3.15088770659819      1.22812369590645      0.00148680169748
  C   3.44705971165365     -0.07513025389201      0.00122906253871
  C   2.29888570624485     -0.88107529267301      0.00017679442331
  C   2.25907976516747     -2.28090657255756     -0.00033524929900
  N   2.27309803762086     -3.44228570251519     -0.00049664794632
  C   1.18283524811716      0.00104686203919     -0.00030562536376
  N   -0.03768819430799     -0.50217917391016     -0.00129053363220
  C   -1.23030920062712      0.02178569713479     -0.00202788614789
  H   -4.53176707682981     -0.52265162399537     -0.00469239930688
  H   -3.90351921724481      2.05648666715246     -0.00370457836618
  H   -2.02062600010041      3.45104721565709     -0.00178791670089
  H   0.04404972138860      4.28548094665399      0.00016055082843
  H   2.10405648051139      3.36410927465016      0.00146888392078
  H   4.47083098273925     -0.41606541228073      0.00181072392940
