26
Coordinates from ORCA-job ./opt_b97-3c_parallel
  N   -5.36049427693588      1.63787405406491      0.00310425007183
  C   -4.54005242711401      0.81376183965093      0.00231514876327
  C   -3.53810993538484     -0.16557482751781      0.00141564465321
  C   -3.74698578501761     -1.55029344466912      0.00021288835951
  C   -2.51374825555402     -2.19169834180541     -0.00040124195740
  C   -1.47993798028994     -1.23898620952426      0.00038660769475
  C   -0.15702532910431     -1.64027610442327     -0.00020127325385
  C   1.06644799821412     -0.98400595499334      0.00002966173598
  N   2.16894934289473     -1.77010417132907     -0.00114697566978
  C   3.24719776641616     -0.96354279111950     -0.00089573351039
  N   4.48861936234585     -1.45663911937934     -0.00234608652457
  C   2.87825869174969      0.40632967657951      0.00058353802086
  C   3.77199589207635      1.47865056502424      0.00147437676431
  N   4.58882432069816      2.30662494077901      0.00223613944332
  C   1.46763695336859      0.44845488817539      0.00128017686201
  N   0.86045873766612      1.62456495718065      0.00290896006930
  C   -0.39175051782227      2.00796681657928      0.00369368851723
  C   -1.65473081691258      1.38320325711848      0.00298958152141
  C   -2.13059667012356      0.09461765369218      0.00161570341932
  H   -4.71427984138168     -2.02618133792876     -0.00018705262960
  H   -2.35724965033591     -3.25844969766833     -0.00137991342962
  H   -0.02282144251951     -2.71607763281768     -0.00123177897286
  H   4.62461972972364     -2.45084096153232     -0.00139727608219
  H   5.28922505426720     -0.85217402514206     -0.00008529013590
  H   -0.47932507426736      3.09159220337804      0.00516558448226
  H   -2.44832852395719      2.12352391332764      0.00382472398764
