27
Coordinates from ORCA-job ./opt_b97-3c_parallel
  N   5.05892344279387      2.13430057479830     -0.19491128840429
  C   4.38609534078592      1.18838794808234     -0.13445487870237
  C   3.56187958012128      0.05587202876074     -0.06069919255901
  C   4.00573597154654     -1.27391310447739     -0.00990600135975
  C   2.89214591188469     -2.09855801973995      0.06589015668600
  C   1.71490937871818     -1.31830486032134      0.06060898443913
  C   0.47443211099480     -1.93341643625053      0.09671784228059
  C   -0.85659095308705     -1.54438815119660      0.05372952597060
  C   -1.82869499590156     -2.57204577972758      0.03612894048238
  C   -3.09237614772078     -2.02757667419700     -0.04827022321362
  C   -2.97247633915178     -0.62573005249173     -0.06722057576216
  C   -4.11877971788614      0.17571315719745     -0.20234324298075
  N   -5.14064887763953      0.71126808730536     -0.33997788025046
  C   -1.59018945816892     -0.26506762859883      0.00379147234364
  C   -1.14392991638505      1.06488889563802      0.06896637647189
  C   -2.14728286596581      2.08177154562889      0.18641215385441
  N   -2.85213907480155      2.99296020513766      0.31909443862875
  C   0.12058817421459      1.67833672727801      0.05213726895799
  C   1.44587951255608      1.27633621568126     -0.01282176924068
  C   2.13308511239279      0.07799124977288     -0.01630789431831
  H   5.03737698934000     -1.58369508963249     -0.02724265321330
  H   2.90804775218352     -3.17615946559401      0.11452054931981
  H   0.56754963358756     -3.01386114477745      0.14337502386766
  H   -1.59359115255121     -3.62408451550311      0.06925175087658
  H   -4.02811625297481     -2.55840376881036     -0.10129801642729
  H   0.03694061806817      2.75559063331495      0.08799993532321
  H   2.11283977794618      2.13120684832251     -0.05228007177067
