28
Coordinates from ORCA-job ./opt_b97-3c_parallel
  N   -1.65977753666419     -4.18562987378769      0.00705763061584
  C   -1.01974388326067     -3.21782939288571      0.00032172864081
  C   -0.20933340724328     -2.03685067770527     -0.00564793088367
  C   1.14733732534462     -2.36292414825618      0.00370960027258
  C   2.35215661217098     -1.66570606215034      0.00737810559669
  C   2.74367525043106     -0.34405741525544      0.00581408153826
  C   4.11743801237483     -0.00235131530631      0.01373644899378
  C   4.25037501345861      1.37889476441446      0.01113406305188
  C   2.97231104901278      1.95129036113437      0.00131018026090
  C   2.00055366355987      0.93696555847034     -0.00254580888397
  C   0.65528686440074      1.26219119675263     -0.01401814265758
  C   -0.54923470377508      0.57809294519381     -0.02246534394418
  C   -1.76310217691317      1.32676196386412     -0.03222634888974
  C   -1.89224045716993      2.71646631884886     -0.02113148350968
  N   -2.05386968178067      3.86996871534902     -0.00641311166009
  C   -2.86679730286398      0.43911898954229     -0.03484170971152
  N   -4.16745164986794      0.80885831610054     -0.09144607765705
  C   -2.35854100119049     -0.86316733441953     -0.02693626159805
  C   -0.95462429679493     -0.83394815963175     -0.01801122842817
  H   1.30329221301984     -3.43368980801606      0.01035522744918
  H   3.20069868646706     -2.34224852214655      0.01448657882337
  H   4.92114994895973     -0.72230886665379      0.02072523214848
  H   5.18165459482372      1.92366049431696      0.01573055700683
  H   2.74900842918002      3.00706589162063     -0.00326463622330
  H   0.50645875989390      2.33795140861936     -0.01951095006492
  H   -4.40323553369274      1.76589308417870      0.10598263347186
  H   -4.87138048240106      0.13339613966376      0.14363504344526
  H   -2.95854274517967     -1.75782612195533     -0.03243030270381
