28
Coordinates from ORCA-job ./opt_b97-3c_parallel
  N   3.62685857553054     -3.17708965091532     -0.00376451592959
  C   2.67507019390567     -2.51256390747732     -0.00264682823711
  C   1.48727820534153     -1.71533860274739     -0.00036987363291
  C   0.34326940175885     -2.52823676311737     -0.00173650267804
  C   -1.01849110932067     -2.33703212222547      0.00326831469618
  C   -1.86782295522514     -1.23554147135668      0.01411954472033
  N   -3.19692765143312     -1.46976648168124      0.01982643959900
  C   -3.75186623738633     -0.23926080925928      0.03025822675358
  N   -5.07831472325546     -0.05522705398593      0.06546529231627
  N   -2.89097622940996      0.80096884733748      0.03012613827518
  C   -1.67225191386032      0.22888419633260      0.02027516116014
  C   -0.55241397654927      1.08420018892007      0.01136111537293
  C   -0.93960329444562      2.46387609232451      0.01269215128277
  N   -1.16686623662057      3.60125775426415      0.01239902345543
  C   0.84146241567142      0.89238378317376      0.00288215858851
  C   1.69814896563968      1.99315063056561      0.00018722797347
  C   3.03353416099343      1.55452967861829      0.00001264985673
  N   4.11934011848697      2.34603823035862     -0.01970141009054
  C   3.04246751632309      0.14731361015219      0.00010028022933
  C   1.73399787645859     -0.32890484124418      0.00157481517498
  H   0.60254172564686     -3.57917540139501     -0.00688901132760
  H   -1.58595273086683     -3.25923424405244      0.00055709082046
  H   -5.44189882463295      0.87002044867989     -0.06782416042295
  H   -5.68251798343423     -0.84210066805516     -0.08006413511863
  H   1.38503657087975      3.02257182792099     -0.00086962180984
  H   4.03038444114090      3.34050540913356      0.07460064668541
  H   5.03917775435514      1.95868440798705      0.07747507720657
  H   3.92673855750803     -0.46713001595601     -0.00365435872006
