26
Coordinates from ORCA-job ./opt_b97-3c_parallel
  N   -3.64431381547241      3.16136165566365     -0.01664723166855
  C   -2.73693880789781      2.43913570917875     -0.01132268756131
  C   -1.52609099459367      1.67526256664477     -0.00425476070684
  C   -0.38364372627343      2.49020527038319      0.00052542352001
  C   0.97965074429187      2.27206483705270      0.00630066188188
  C   1.81685733744105      1.16171491796676      0.01217128787056
  C   3.19641750144447      1.31594039402377      0.01602505645941
  C   3.82950855812786      0.04646589020421      0.02103859711477
  N   5.16086037925133     -0.15880168344546      0.05317693868944
  C   2.83376660744099     -0.93857786652624      0.02468590350506
  C   1.57105269139856     -0.32788897259652      0.01695576769755
  N   0.50726896680941     -1.09252177156319      0.01254649130856
  C   -0.79069443274850     -0.87579291733197      0.00285190899495
  C   -1.67044184395874     -1.99705907915239     -0.00195118241496
  C   -1.27916920068675     -3.34080641605006      0.00096859997388
  N   -0.97331425880832     -4.46198557159200      0.00333759505636
  C   -2.97463329126177     -1.48786962966099     -0.01081010705508
  N   -2.99930428993411     -0.15141284206833     -0.01171280501203
  C   -1.71522633644750      0.28921330171435     -0.00415655576544
  H   -0.63558414214044      3.54213003150874     -0.00167322874495
  H   1.53823132160184      3.20245156272825      0.00695708031665
  H   3.71021132739024      2.26600802704267      0.01727348212615
  H   5.53149071399338     -1.08171844744489     -0.07833969600336
  H   5.79574939619209      0.60268805424704     -0.09915576193156
  H   2.97340455439166     -2.00707186844259      0.03114284993242
  H   -3.88990892725130     -2.05977028418425     -0.01644151498358
