27
Coordinates from ORCA-job ./opt_b97-3c_parallel
  N   -1.93344560273838     -4.04259753473430      0.38355655533973
  C   -2.11776240793425     -2.90396915275309      0.23846201326256
  C   -2.38731915190844     -1.54150410512386      0.06489001833229
  C   -3.64878281945759     -0.98842503346060     -0.22882381659609
  C   -3.55112006965714      0.38533010674511     -0.36509645430261
  C   -2.22280605825546      0.79679859706269     -0.14190937706471
  N   -1.94535859184359      2.07031577533938     -0.07386141547166
  C   -0.84616107683557      2.79465543839237      0.11448932028459
  N   -1.13943459456775      4.08843698383640      0.44310690209955
  C   0.52664642811189      2.51195019369914     -0.04510108369566
  C   1.27779875779454      1.36379332767710     -0.10006030778961
  N   2.62537182042041      1.51557676097373     -0.23174719425733
  C   3.17756897621741      0.30268117609716     -0.12327674938979
  N   4.49578888874035      0.11134393671897     -0.20350467472773
  C   2.20141963670344     -0.72050630732092      0.08444826249760
  C   2.49570296693393     -2.07774147733356      0.20962178634573
  N   2.85692864980051     -3.17972702388176      0.30486205709169
  C   0.94951644492855     -0.08253201353121      0.08138237680707
  N   -0.15689555056213     -0.79658417724255      0.18631472653615
  C   -1.41976138131810     -0.50167806478275      0.08999149686873
  H   -4.55333631448930     -1.56871163140795     -0.32310967259158
  H   -4.35946422484823      1.07365783671394     -0.54551983679728
  H   -0.42636635168016      4.79354180148043      0.45416226639472
  H   -2.09293824468515      4.38288537062304      0.33117506198739
  H   1.15396748757597      3.39292112858539     -0.11356916793493
  H   4.89170093740413     -0.80812888449063     -0.13393758878975
  H   5.09916040734863      0.89369987781851     -0.37985374893898
