25
Coordinates from ORCA-job ./opt_b97-3c_parallel
  N   -4.01352909857553     -2.62862250336939      0.00428864998921
  C   -3.58243667172759     -1.54883832832255      0.00321780978019
  C   -3.04543001993520     -0.25339033057128      0.00209676235308
  C   -3.79189005786283      0.94127006028351      0.00218781316885
  C   -2.90670800309659      2.00252889862273      0.00088732074652
  C   -1.57349699928299      1.52176922067434     -0.00008463792323
  C   -0.51481616136493      2.41673346634670     -0.00140905891365
  C   0.88018236177138      2.34474360813145     -0.00265875618463
  N   1.78158517394514      1.37986219778667     -0.00318598000657
  C   1.73249769258649      0.06986364049226     -0.00259533181467
  C   2.97650219269140     -0.64384502633032     -0.00358609136788
  C   4.24064318860306     -0.03615591023417     -0.00523295268502
  N   5.30179987797610      0.43612585891860     -0.00683656764175
  C   2.72698818818599     -2.01931048254703     -0.00266755004879
  C   1.34904984257311     -2.21525054228230     -0.00112860725019
  C   0.67610448568968     -0.97924257719834     -0.00101967434236
  C   -0.70764482905329     -0.94894537791900      0.00029684697784
  C   -1.65605035929657      0.05804228159629      0.00068106139508
  H   -4.86785943762356      0.99701706019246      0.00312776956522
  H   -3.17355058780572      3.04760600480248      0.00063706593124
  H   -0.84936789669725      3.44938163730593     -0.00153656903028
  H   1.34584224794234      3.32629810016705     -0.00346005269035
  H   3.48185359463402     -2.78807241712615     -0.00309971831511
  H   0.85274019386159     -3.17351560774682     -0.00016729102802
  H   -1.14694407863826     -1.94199752427315      0.00120019163525
