26
Coordinates from ORCA-job ./opt_b97-3c_parallel
  N   -2.34364148747594      3.68585553234754      0.41052920932432
  C   -2.24552983590661      2.53834123659442      0.25084639373536
  C   -2.25729565753386      1.15817146097581      0.01233230323538
  C   -3.37489319363826      0.52852818526545     -0.62017863078495
  C   -3.11092265921402     -0.79478625578275     -0.84595860060747
  C   -1.82751848134329     -1.09504477347938     -0.30863109410563
  N   -1.50321000721390     -2.31917122238017     -0.01688491155832
  C   -0.37579283384021     -2.79392610275830      0.53150992405538
  N   -0.52576880997571     -3.65361650395927      1.54959828094082
  N   0.83835111430563     -2.66688037136976      0.02270442705158
  C   1.47032007582075     -1.61240653676303     -0.40975151553194
  N   2.67130618329325     -1.78493152910196     -1.03175299613542
  C   3.25578796551274     -0.59854573724804     -1.05192652673991
  C   2.48910192316013      0.42897103868252     -0.43199462866896
  C   2.88274057337967      1.77222773659191     -0.41857049648098
  N   3.27976915219323      2.86395744214410     -0.46109645999301
  C   1.26592086770328     -0.16722118888058     -0.06963855415046
  C   0.12504944672101      0.52177920560199      0.38650273723392
  C   0.38405589894979      1.74901015781403      1.06102843415569
  N   0.61663056004408      2.66026030446716      1.74040307765179
  C   -1.21984976011579      0.21198527836996      0.14352978613191
  H   -4.28305587511573      1.05374703694191     -0.86907236711754
  H   -3.78686844477970     -1.54171893413570     -1.22555530060956
  H   -1.45043370689504     -3.95960702494118      1.79679193491800
  H   0.26050903605522     -4.21794574082968      1.82201780870047
  H   4.21878449032695     -0.45120197967693     -1.51824056849036
