23
Coordinates from ORCA-job ./opt_b97-3c_parallel
  N   -4.67080641643645      1.26942734936012      0.00370483261725
  C   -3.76873898835368      0.53612753487884      0.00293944640706
  C   -2.67401141884426     -0.34053535335017      0.00209603633709
  C   -2.75628803875923     -1.74441670126257      0.00212685304176
  C   -1.47092458064934     -2.25774019308447      0.00111725606141
  C   -0.53321263239156     -1.20022309502642      0.00043434069476
  C   0.82209672679882     -1.46602895504747     -0.00053513117901
  C   1.97091241011910     -0.68709949796868     -0.00116150442218
  C   3.23737545559446     -1.27737909686908     -0.00176100740222
  C   4.17464981114545     -0.23685507281817     -0.00193768949596
  N   3.60679529354306      0.97121957649497     -0.00156171454171
  C   2.25129444093736      0.78406623841004     -0.00109249752655
  N   1.52654573641580      1.87724084804170     -0.00088128942363
  C   0.23277764344811      2.13326194416165     -0.00037036370222
  C   -0.95305125971374      1.39089849842289      0.00057703522953
  C   -1.30360669492832      0.05346187487473      0.00104507732650
  H   -3.67484165780197     -2.30790265860640      0.00282518185159
  H   -1.20755383451681     -3.30369393952454      0.00089587624490
  H   1.03802437505199     -2.53061094854991     -0.00075908098102
  H   3.44002427881615     -2.33779818153179     -0.00200274956309
  H   5.25065197319726     -0.33528745289501     -0.00234106002104
  H   0.03915156617887      3.20284139097272     -0.00058558778560
  H   -1.81788132715107      2.04693762411702      0.00107343903240
