31
Coordinates from ORCA-job ./opt_b97-3c_parallel
  N   4.42130377743473     -2.03275900752668     -0.32007089055955
  C   3.79423774895310     -1.05395842160342     -0.28802276104420
  C   3.13640540000915      0.18257541685887     -0.32510898154819
  C   3.74551003886865      1.32089388634808     -0.93171103868057
  C   2.86533102162899      2.36961171406555     -0.95083810288871
  C   1.64844824482771      1.95949274152899     -0.34341435699515
  N   0.78544830434332      2.86170589697097      0.02955481110097
  C   -0.43387041382703      2.84976565083469      0.54627487963006
  N   -0.73850732153713      3.95986795025920      1.26487915311798
  C   -1.48890920741002      1.95413120216545      0.27762652822173
  C   -1.53438285927483      0.61066932457880     -0.00702619210281
  C   -2.79090587612294     -0.00520204496938     -0.28740527630324
  C   -4.00774007433831      0.65031361230145     -0.47195891587774
  N   -5.03445932510570      1.17758546699463     -0.62805137342709
  C   -2.63562911725321     -1.40213196819606     -0.26944876663482
  N   -3.57763593228639     -2.31613171664024     -0.50066375788772
  C   -1.27137150632288     -1.68970601606553      0.03092097897680
  C   -0.83319072738287     -3.01730024085045     -0.00495919065407
  N   -0.64662705240664     -4.16260539888076     -0.09255447561942
  C   -0.55333075849160     -0.47794033768666      0.16152597487455
  C   0.84085092205696     -0.44878603644682      0.38612904549354
  C   1.35985705008014     -1.60919736674198      1.03050593139565
  N   1.74177933009661     -2.46866965211206      1.71074711664913
  C   1.79670758314374      0.49756028957891     -0.00872912625059
  H   4.75552343107446      1.31961286317815     -1.30910498336103
  H   3.05637885747336      3.38048914698109     -1.26788464295923
  H   -1.67463769921027      4.12252100574425      1.58752857164764
  H   -0.10638667638073      4.74006879655010      1.22381255491134
  H   -2.46217258121405      2.43351434927517      0.28005484570588
  H   -4.50839518947813     -2.04495346713966     -0.76144690688441
  H   -3.35550435585030     -3.29633643645322     -0.47730362513768
