27
Coordinates from ORCA-job ./opt_b97-3c_parallel
  N   4.12070812995857     -1.64589382364437     -1.02356663316885
  C   3.27657036789680     -0.90490091304490     -0.71559788336228
  C   2.33042436762612      0.05102185293730     -0.34708848220139
  C   2.63448396515906      1.40799328232040     -0.07999080651821
  N   3.83763074397026      1.98357847648415     -0.29012605405716
  C   1.47106011799417      2.04400613600603      0.39106850669547
  C   0.40840198095909      1.13467933615693      0.39843603620280
  C   -0.90630030893461      1.54608675909188      0.58498976118671
  C   -2.12099295019897      0.96905965802002      0.27927432049066
  C   -3.29308237240954      1.72944730751955      0.16668854811059
  C   -4.27159779697852      0.97697290665571     -0.50151549480413
  C   -3.77887081590513     -0.28606965940075     -0.79716623402361
  C   -2.46745203888809     -0.39612378635557     -0.27845277352708
  N   -1.88910237045349     -1.56320577727893     -0.15955442225288
  C   -0.68939107978358     -1.92342560998825      0.29869985550504
  N   -0.67451115143722     -3.12379716135474      0.94784757039277
  N   0.51115358222905     -1.40490534737850      0.07837084604475
  C   0.96907274585841     -0.18457536030342     -0.01141955673453
  H   4.62544697430250      1.39019624521298     -0.48662520520624
  H   4.04759432137856      2.85776382831275      0.15532304761754
  H   1.38623179146408      3.09533583736020      0.61916416897993
  H   -0.98885792919539      2.58582652763732      0.88937915796116
  H   -3.38139752768697      2.76504443957055      0.45645111999826
  H   -5.26240904232549      1.33146791085555     -0.74415758128391
  H   -4.31671011508887     -1.11025359599091     -1.23511160452308
  H   -1.48657571916704     -3.70407862613678      0.82623331460847
  H   0.21574871795526     -3.59006246136556      0.99319751826875
