28
Coordinates from ORCA-job ./opt_b97-3c_parallel
  N   3.70514083253390      2.85725982708179     -0.03143357159388
  C   2.74004249657562      2.21294055081348     -0.01669261032322
  C   1.49161427656764      1.51887119722928     -0.00182954392267
  C   0.42890196675033      2.43081673649334      0.00548321244069
  C   -0.95488986678894      2.39108427727267      0.01615637114173
  C   -1.90888105796170      1.39081089804590      0.01661488679539
  N   -3.20748480092836      1.75893625156917      0.02456675940187
  C   -3.94071049974104      0.63059358998528      0.01696610507793
  N   -5.27055330847864      0.66330769774157      0.02186749874814
  C   -3.12975373732045     -0.54274922533518      0.00376066316212
  C   -3.61892509577373     -1.84951553746360     -0.00472620380728
  N   -4.12333653261487     -2.89753804126571     -0.01131446972171
  C   -1.79578439771921     -0.10336153925049      0.00406252061296
  N   -0.81501456655224     -0.97676251493844     -0.00268743369360
  C   0.48835152910010     -0.96821338121030     -0.00049741382796
  N   1.07560494688813     -2.19200704033010     -0.00195627953516
  C   2.39170356534977     -2.00804101044262      0.00337500977519
  N   3.25482880256218     -3.01821373485520      0.00626976550185
  C   2.75678490587377     -0.61393249434324      0.00592484235979
  C   4.10754271101505     -0.25146344262459      0.01638132598637
  N   5.26813288269740     -0.16521577651489      0.02703241374778
  C   1.56444610252269      0.10925735921439      0.00327158205534
  H   0.79120311687070      3.45068044938539      0.00232123362892
  H   -1.41391045297505      3.37174216854972      0.02317234247020
  H   -5.74271892290712      1.54977677274336      0.03158851240685
  H   -5.81257733725457     -0.18189928848921      0.01575252768172
  H   4.24664510536791     -2.85675975520661      0.01182003380436
  H   2.90817052354155     -3.96101389395533      0.00531757032512
