24
Coordinates from ORCA-job ./opt_b97-3c_parallel
  N   4.69741272248497      1.24712800935056      0.00504739066311
  C   3.78445698873666      0.52704362831294      0.00416902597708
  C   2.67789705351908     -0.33499196675448      0.00276134545000
  C   2.74659494588310     -1.74156212917654      0.00147460851935
  C   1.45803653745836     -2.23648838905639      0.00040427398212
  C   0.52820990705823     -1.16607053900365      0.00098488374164
  C   -0.82665954198557     -1.44236287187584      0.00018114064734
  C   -1.99406052963136     -0.68851815042069      0.00044881596134
  C   -3.25706442220318     -1.30570779810168     -0.00052304625557
  C   -4.20655068354105     -0.28611056470759      0.00008446168416
  N   -3.64478314371692      0.93341630382611      0.00137132037806
  C   -2.29294722095738      0.75031953249916      0.00167184155497
  C   -1.52164246433247      1.90281017017845      0.00299107499699
  C   -0.16330818886783      2.18691150277491      0.00377209056530
  C   0.99862101300619      1.42930106947897      0.00358392600516
  C   1.31419333967089      0.07713773914680      0.00249792921629
  H   3.65919841617633     -2.31447846059717      0.00138700881176
  H   1.18015420679671     -3.27881453426907     -0.00069111203184
  H   -1.02698508858169     -2.50998852181167     -0.00088560202176
  H   -3.43782378392069     -2.36945178518444     -0.00154436992834
  H   -5.28131729287179     -0.39266270662911     -0.00036344771873
  H   -2.15538343393592      2.78209772540111      0.00355204530335
  H   0.03792956394567      3.25109685579448      0.00480876025363
  H   1.88818040820967      2.05095983092485      0.00453182004462
