30
Coordinates from ORCA-job ./opt_b97-3c_parallel
  N   4.74388920691720      1.47146707190597     -0.02639410823269
  C   3.83994018126206      0.73446167511280     -0.01059168448561
  C   2.78727197979786     -0.17782902226329      0.00600498965806
  C   2.96139429232660     -1.58806857990243      0.01719593873591
  N   4.16505539967702     -2.21128322397766      0.08025111987611
  C   1.70062628701713     -2.17969654436829      0.01479740148822
  C   0.70339543850719     -1.18343751567828      0.00375122201457
  C   -0.63201469675365     -1.54143266704692      0.00675381508026
  C   -1.85245671877966     -0.87572692993378      0.00899779065107
  C   -3.06315717746275     -1.57171141852759      0.02616067505654
  C   -4.08480143640613     -0.60586674069495      0.02656722693962
  N   -5.42393672789227     -0.82264467719494      0.08703528305976
  N   -3.60449059175116      0.65028031852814      0.01153349420364
  C   -2.24625208804778      0.55527804086847      0.00109481872707
  C   -1.55504307202548      1.74801643525758     -0.02960452188697
  C   -0.21611516127694      2.15668070809867     -0.04541380338053
  N   -0.05185094387523      3.53730267620957     -0.13271216116790
  C   0.99011273200734      1.44388740619254     -0.03340670926483
  C   1.39616744507981      0.12639448097958     -0.00632987569399
  H   4.98435267857571     -1.67179760670420     -0.14134819679009
  H   4.21185523175545     -3.17934395249229     -0.18056575611445
  H   1.50374530731355     -3.24024829312166      0.03318902990971
  H   -0.76114482721643     -2.62019830077855      0.01329448999660
  H   -3.17695852474726     -2.64424745296483      0.04553005739385
  H   -6.00270409597223     -0.03211400822814     -0.13961944336430
  H   -5.77485084763024     -1.71433301711575     -0.21136837888270
  H   -2.25801488551891      2.57425366160259     -0.04586118344174
  H   0.83738097523085      3.90285824615822      0.16084145397152
  H   -0.82418624720054      4.09908122183740      0.18004836452667
  H   1.84654757428903      2.11176288624213     -0.05148136548315
