33
Coordinates from ORCA-job ./opt_b97-3c_parallel
  N   5.20035751528840     -1.00306650047271      0.83561846782447
  C   4.21804729076734     -0.43041574172291      0.58352252087241
  C   3.18415575210595      0.43903862590990      0.22639029066067
  C   3.50752892243260      1.73302472123668     -0.25339667565063
  N   4.73938085419537      2.25205471636188     -0.26908444456581
  C   2.32404806089628      2.36160784393063     -0.69103538474182
  C   1.24669702428524      1.50411338591407     -0.50799961390942
  C   -0.04599210084971      2.02437175566026     -0.54354471034181
  C   -1.29411832971548      1.54777051229989     -0.21041607384443
  N   -2.28156147626215      2.47223633675430     -0.01117621377438
  C   -3.38739563116422      1.79403180061896      0.27937305035842
  N   -4.54070193709962      2.38574586207079      0.59599369620861
  C   -3.18339459355857      0.36791729497366      0.21651449356649
  C   -4.19093721892957     -0.55484800997752      0.50600917111733
  N   -5.09778383641250     -1.22242681001068      0.79985582350959
  C   -1.83864598944121      0.18224930350046     -0.09844712981676
  C   -1.29083735952473     -1.05821240554953     -0.52625183757007
  C   -2.22743963057443     -1.94851794287470     -1.10908769319506
  N   -2.92267100174494     -2.71474956568072     -1.63968803219074
  C   -0.00062058192981     -1.59778620852373     -0.40105301129739
  N   0.18427387126325     -2.87111622661605     -0.82410342369477
  C   1.18474530839131     -1.01679003340916      0.21482165570751
  C   1.90788858447263     -1.97903696485363      0.96858653754766
  N   2.39881037981916     -2.79873197982864      1.63088244616887
  C   1.79225255140986      0.21452446620273      0.01936912576310
  H   5.52422719120659      1.69528027285097      0.02540719865792
  H   4.93190940599754      3.11411160100406     -0.74324266564713
  H   2.24382268876289      3.38923301039427     -1.00777323432635
  H   -0.07484290046418      3.08933634661329     -0.74146062098113
  H   -4.58388923530835      3.38682891299245      0.65290724895978
  H   -5.34892407529471      1.84531325852127      0.84564023681884
  H   -0.60566896286065     -3.46484072254104     -1.01448387988837
  H   1.06320562353042     -3.33032172024935     -0.66926226621225
