27
Coordinates from ORCA-job ./opt_b97-3c_parallel
  N   4.74502563346755     -1.68594644615266      0.01607602128109
  C   3.82625722192391     -0.96997591780763     -0.00303320817959
  C   2.77314917403591     -0.05424712529132     -0.01996001828584
  C   2.96562785453050      1.35906922678459     -0.02520700987692
  N   4.17318257104827      1.96211785021513     -0.07643390557171
  C   1.70948976554067      1.96440528936608     -0.02031112611253
  C   0.70838230602967      0.97573406732612     -0.01257146783233
  C   -0.62866150145504      1.32763971831963     -0.00860711301051
  C   -1.84101216936993      0.64710627240007     -0.00882580435117
  C   -3.04864130074329      1.33571671514130     -0.01977630561777
  C   -4.07020481972031      0.36430800729251     -0.03454503690881
  N   -5.40033282367634      0.57845872659866     -0.08584626060810
  N   -3.59041323719269     -0.89267173848748     -0.03241877343653
  C   -2.24023768879956     -0.81101867192988     -0.01545883386566
  N   -1.58848226571025     -1.95123832382113      0.00573731313251
  C   -0.31185589463800     -2.28579782175017      0.02482814400999
  C   0.92612878988815     -1.64369888144208      0.01136483647161
  C   1.38831122849278     -0.33763765468600     -0.01080131098089
  H   4.24386703452184      2.93965961669498      0.13709345025956
  H   4.99621016523849      1.41298713886355      0.10162559155959
  H   1.52332035662518      3.02694019478744     -0.03007575598833
  H   -0.76654616180500      2.40548316027861     -0.01032422365555
  H   -3.16913543092299      2.40847847825331     -0.02487595772402
  H   -5.99618806238144     -0.21581388339929      0.06948020215252
  H   -5.77316285596915      1.48114107326494      0.14124954114567
  H   -0.19397765617381     -3.36739261722941      0.05022440714587
  H   1.73522952871486     -2.36699621458943      0.02021895094672
