26
Coordinates from ORCA-job ./opt_b97-3c_parallel
  N   -4.41650426562836     -1.82028519618105     -0.87483287462215
  C   -3.75960386505111     -0.89337377831216     -0.62755935011870
  C   -2.96579326635198      0.21836249335994     -0.32442117063882
  C   -3.39944421845550      1.54278839596794     -0.14891950411912
  C   -2.32261617429211      2.33015882523109      0.23536072789595
  C   -1.14924857045734      1.54778804756075      0.27182098581330
  C   0.09975384042562      2.10821639881611      0.39134951032683
  C   1.38623701804680      1.62779148903693      0.16145297715355
  C   2.47728469245157      2.50118372952299      0.07166635629367
  C   3.57312879995543      1.74533528349283     -0.36147049114446
  N   3.27037115924515      0.45514154621992     -0.52998381477126
  C   1.95288305567942      0.30949961745282     -0.20004281038928
  C   1.49380680905217     -0.99908968061097     -0.09328157849084
  C   2.46545928792834     -2.00226925286313     -0.36727670047723
  N   3.15619507205185     -2.91979644956953     -0.54095866595599
  C   0.20533100847466     -1.52589827318099      0.28188428414528
  N   0.17401240027442     -2.78169368806531      0.79874190756716
  N   -0.98561201870208     -1.00894213312647      0.07428137723566
  C   -1.56716032129147      0.15076207612283     -0.03421706783885
  H   -4.41504022236761      1.87795778955475     -0.28357920378992
  H   -2.35339468230801      3.39181569434746      0.42240659482468
  H   0.07667151762671      3.17338462314167      0.60097754335235
  H   2.44716807730756      3.56419478328808      0.25078126200469
  H   4.57412448786416      2.10061343869269     -0.55752281517871
  H   -0.71706415761175     -3.24741199830046      0.77551655108851
  H   0.99699965423277     -3.35875749829813      0.78613417933263
