26
Coordinates from ORCA-job ./opt_b97-3c_parallel
  N   4.00905580577739     -2.37088716093997      0.00312540791773
  C   3.58847155709978     -1.28760777184567      0.00262531213049
  C   3.08867800204612      0.02325754235198      0.00219810691334
  C   3.88367516862602      1.18883824192811      0.00251353355755
  C   3.04420003044823      2.28432437968180      0.00194096511098
  C   1.69179404000332      1.85775241408844      0.00124208197517
  C   0.67476472319739      2.79323650225299      0.00055880634175
  C   -0.72651934928274      2.77172398254939     -0.00020543581471
  N   -1.65686972923305      1.84232015053933     -0.00053823353595
  C   -1.66247947723168      0.52682080591269     -0.00035555767559
  C   -2.94087299084615     -0.12276723259265     -0.00087528746884
  C   -4.17217633358973      0.55137811530278     -0.00149297328844
  N   -5.20433898254447      1.08263509483342     -0.00175327008516
  C   -2.76894367424538     -1.50347649756187     -0.00066106944658
  C   -1.39399175344581     -1.77397627770602      0.00002193723417
  C   -0.83626989382580     -3.06207675040484      0.00043693856873
  N   -0.37147005819698     -4.12696872704988      0.00093695082200
  C   -0.65501406643793     -0.55494392536272      0.00025249381223
  C   0.72847270212971     -0.58243033901992      0.00097341680642
  C   1.71501939040054      0.38742052629311      0.00140544837213
  H   4.96097841277562      1.19914824157327      0.00310575151704
  H   3.35289690716225      3.31766495218748      0.00200364879166
  H   1.04784231708547      3.81233960886780      0.00063180378086
  H   -1.15542233852196      3.77002076410886     -0.00059530482746
  H   -3.55251178483310     -2.24161104046215     -0.00095675230086
  H   1.13054361178294     -1.59141611722579      0.00129141199136
