30
Coordinates from ORCA-job ./opt_b97-3c_parallel
  N   5.51247916921612     -0.59319303572658      0.95734702804959
  C   4.55325941053753     -0.03887655457773      0.60663290243180
  C   3.46055972885865      0.76328834878289      0.24078209768725
  C   3.59021729086431      2.17128107095298      0.14350166989917
  C   2.36163224909395      2.70831983902734     -0.15113757878967
  C   1.38916893148554      1.67259868692100     -0.20321696771086
  C   0.06829845336399      2.03062815226159     -0.35070485909324
  C   -1.18475874128412      1.42506416486825     -0.23280659329665
  C   -2.31215078453457      2.24797758281348     -0.22333712862146
  C   -3.46050326075013      1.47925627215257      0.03049424608146
  N   -4.72232579171421      1.91490124002552      0.14157746377887
  C   -3.05605963453128      0.12297447143836      0.14723131199644
  C   -4.01974171708092     -0.84203204025198      0.45972437321383
  N   -4.95536998378867     -1.47154992088544      0.74728003699030
  C   -1.64788019067122      0.04025990219640     -0.03269232209457
  C   -0.94967911987437     -1.16676035135298     -0.14465372083068
  C   -1.75456974452135     -2.35045392393770     -0.19492546683525
  N   -2.32855301579620     -3.35493891260369     -0.27641579163217
  C   0.40672650795639     -1.52308847915606     -0.26140173873765
  C   1.66352137777334     -0.92066297380448     -0.16230294561183
  C   2.68224124418064     -1.91716194897245     -0.30955973682877
  N   3.43084135480164     -2.78354416861874     -0.49361489419634
  C   2.10907966746524      0.40265577862173      0.00641586387337
  H   4.51358690308409      2.70510835883060      0.29618217544556
  H   2.13641994194697      3.75549012485669     -0.27459732666741
  H   -0.03391369349584      3.10024993798672     -0.50329222779442
  H   -2.29239259720706      3.31834548383587     -0.35541989146415
  H   -4.93767117068672      2.89354819635016      0.13335279104738
  H   -5.45761016899091      1.27642112733225      0.39332090048716
  H   0.50455258199903     -2.58836605566665     -0.41263360047710
