26
Coordinates from ORCA-job ./opt_b97-3c_parallel
  N   -3.52291738489465      2.63137418888307     -0.57273345324158
  C   -3.03915379908043      1.60397782806851     -0.32572573866168
  C   -2.61214547543707      0.28636432916055     -0.09327139271359
  C   -3.54984742539407     -0.77014202117530     -0.08913720603233
  C   -2.88140292097337     -1.96438969143807      0.03273788127321
  C   -1.48510023437213     -1.73353371689857      0.06818766246616
  C   -0.65603941057470     -2.83712024168807      0.13322551777301
  C   0.71261245158420     -3.09553255645064      0.07464760021502
  C   1.83454248879623     -2.31423027176597     -0.04797650519797
  C   2.06676231038464     -0.93700342135990     -0.08674167455109
  N   3.35064237186603     -0.54085481317380     -0.18444476273807
  C   3.29348177517085      0.80962496455668     -0.11475991205773
  N   4.38528376435958      1.57621584503686     -0.21489135325772
  N   2.06239776549482      1.33474226288408      0.03906526078849
  C   1.23304602564394      0.27356114211030      0.04581180631786
  C   -0.15425579975732      0.54589618407079      0.15141722773101
  C   -0.38358478465705      1.92567876911419      0.45397789478746
  N   -0.55931646937465      3.01751244552516      0.80222201568703
  C   -1.29904526358736     -0.25132540036828      0.02082881902528
  H   -4.61393082864020     -0.63019391916862     -0.18805191823648
  H   -3.32957325711119     -2.94435836373359      0.06415065183750
  H   -1.23188175098367     -3.75370101386055      0.20430327562555
  H   0.93660974224362     -4.15481942265440      0.10962801281439
  H   2.76508696702766     -2.86454116634633     -0.11277579552356
  H   4.30942552913413      2.55987783656578     -0.03381816415409
  H   5.29070182153217      1.14585658390616     -0.21609980107603
