27
Coordinates from ORCA-job ./opt_b97-3c_parallel
  N   2.72421223706956      3.81969938439836     -0.00361025200881
  C   1.96086790685598      2.94610412810461     -0.00264984074085
  C   0.92470447663595      1.95980038673126     -0.00195335832986
  C   -0.35613193216139      2.54159764845961     -0.00311396813793
  C   -1.66223682408181      2.11020838377031     -0.00315545036196
  C   -2.30553015130385      0.87112646794025     -0.00203695608031
  N   -3.64650743340417      0.85072798365419     -0.00253929054141
  C   -3.95868361449663     -0.47176018202605     -0.00126395690752
  N   -5.22583257937147     -0.88924523033484     -0.00099137357357
  N   -2.91972323890192     -1.33215992023621      0.00003460533354
  C   -1.83161228868893     -0.53339080718201     -0.00037643240827
  C   -0.58188151781289     -1.13251424081160      0.00072778493753
  C   0.72873241368724     -0.68543012851186      0.00080999134194
  C   1.80030990274734     -1.60635684012666      0.00223873917656
  C   1.74433371426208     -2.99951372226774      0.00366462702500
  N   1.75643170500149     -4.16385215793679      0.00468970968525
  C   2.99583320358967     -0.83892450246836      0.00202346393851
  N   4.24439585482929     -1.30596640140591      0.00310444446241
  N   2.73983670695071      0.47965989087148      0.00052821112332
  C   1.40187186346893      0.63849857333735     -0.00026591195943
  H   -0.29149187710981      3.62204250359172     -0.00428681092473
  H   -2.38381261296591      2.91772865624853     -0.00431936296092
  H   -5.42973643139304     -1.87078456989473     -0.00172629128209
  H   -5.97335126590725     -0.22150536788707     -0.00369994992401
  H   -0.67147716494254     -2.21342701061900      0.00181281862493
  H   5.01074463207639     -0.65738950719087      0.00281096508846
  H   4.43465760966704     -2.29099971120796      0.00423075270424
