26
Coordinates from ORCA-job ./opt_b97-3c_parallel
  N   4.78443213380974     -0.00693950678617     -0.51411034812825
  C   3.80613962776504      0.58833536374331     -0.31560910159472
  C   2.65555270214778      1.34759429730526     -0.07720484779361
  C   2.63689986171623      2.69868775348419      0.33564190935145
  C   1.33329299928551      3.12502350972052      0.50241969276113
  C   0.44591905653134      2.07243053046372      0.17870578070262
  N   -0.82812281302163      2.30089256927685      0.04774127374205
  C   -1.92472143067125      1.61388988055899     -0.22186864418717
  N   -2.90904196429015      2.35346942671291     -0.77795998018608
  C   -2.24610732325356      0.25643686839648      0.13854861719531
  C   -3.63330900475049      0.02783068315001      0.34618162676218
  N   -4.78702014025116     -0.02392931923960      0.46994188958812
  C   -1.43060951650634     -0.86221243185988      0.25606515331384
  N   -2.05670846092550     -2.03970660929637      0.53353755177762
  C   -1.17608807352412     -3.02004833990268      0.33828365409035
  C   0.08616708270177     -2.54387202668689     -0.06402020815973
  C   1.22828844381625     -3.31228443637543     -0.31161952741549
  N   2.15130568445529     -3.98739850623826     -0.51714958631206
  C   -0.00191700287905     -1.12751009180772     -0.08552917104126
  N   1.08594191725077     -0.40785744286348     -0.26991892600748
  C   1.32145713959597      0.86487517412532     -0.13167806020654
  H   3.52181875721034      3.29748276312704      0.48070184328297
  H   1.00847237016703      4.12075261273730      0.75342937627728
  H   -3.84150017741636      1.99161279211258     -0.87682190211153
  H   -2.77960320454777      3.34928161226144     -0.80855429609281
  H   -1.44959360292384     -4.05247612521916      0.49403321578701
