28
Coordinates from ORCA-job ./opt_b97-3c_parallel
  N   3.65739534860896      3.42633200680118     -0.39503763683000
  C   2.73116272300687      2.74245536747251     -0.25203941599670
  C   1.56018317620373      1.93548640666069     -0.08689426811251
  C   0.41621554844841      2.72945987062908     -0.00665032858476
  C   -0.93409405338521      2.49694574222708      0.17642840597823
  C   -1.75790571560677      1.38548599169093      0.18298437923642
  N   -3.08374945572787      1.63272909233625      0.33283239833564
  C   -3.72371360666438      0.46361867882432      0.16225691340721
  N   -5.05738938449291      0.37964499021033      0.29090169203459
  C   -2.82701920701906     -0.59270368842883     -0.12271312236230
  C   -1.54703932138509     -0.05278483114581     -0.09452544169177
  C   -0.39029283989366     -0.87155464936470     -0.22664442151285
  C   -0.74147283044907     -2.18361736689910     -0.68205714835756
  N   -1.11185417061275     -3.17482670365506     -1.15680948298233
  C   0.96888522127205     -0.66741985234297      0.00532042070145
  C   1.88079300332079     -1.77121685653899      0.15718743170128
  C   1.60279001561966     -3.13008223712394      0.37187736076111
  N   1.47932994095739     -4.26141985457937      0.60847979964436
  C   3.18048380982851     -1.27286716261242      0.26470950056852
  C   3.14800571684641      0.11037197625431      0.15897826309807
  C   1.82251148694641      0.55391210627099      0.03999446163811
  H   0.64535374451998      3.78559681487197     -0.05902428076973
  H   -1.51312571887766      3.40192751349025      0.31142223495175
  H   -5.58122100926839      1.23004807025256      0.39669549800523
  H   -5.55166730182721     -0.44266625885116      0.00072085509899
  H   -3.08638768947942     -1.62385335825500     -0.28879965044472
  H   4.05470740964858     -1.88060097214551      0.43093853913137
  H   4.00910370056210      0.75541515775060      0.18876928395257
