25
Coordinates from ORCA-job ./opt_b97-3c_parallel
  N   -3.29638994028006      3.04640352943577      1.10695461356853
  C   -2.97093615331673      1.99547556840253      0.73094574227844
  C   -2.63693938138469      0.71367477945756      0.27852719956532
  C   -3.56565613576064     -0.23287649587227     -0.25385305285235
  C   -2.89926822066756     -1.34367900506565     -0.68610111742944
  C   -1.50686083511625     -1.20579203253419     -0.37447065819137
  C   -0.68809767887316     -2.28355364307447     -0.37861961897627
  C   0.64422890079413     -2.48370130178449      0.13742553617248
  N   0.88048881917486     -3.76330379730512      0.55195911481074
  N   1.68674284454894     -1.70637926399546      0.15683071490966
  C   1.88657448493794     -0.41435001409294     -0.02774375007388
  N   3.11840372152620      0.02654607609608     -0.25960875500011
  C   2.99689600727110      1.38631308956448     -0.19702235833130
  N   4.04887363275956      2.16916440914377     -0.42890325906741
  N   1.79061510557786      1.89157847134536      0.11057821819650
  C   0.98834891520962      0.81058240677618      0.18074483400802
  N   -0.29334185149726      0.97865473487751      0.37787688625664
  C   -1.33317779552026      0.19762400350788      0.17343474197255
  H   -4.63049792626044     -0.06857600241624     -0.30290837631738
  H   -3.34236895748300     -2.23641648606553     -1.09763778976851
  H   -1.14249468935101     -3.20046627498096     -0.74048085541973
  H   0.11563747296968     -4.34402387263037      0.84442257308473
  H   1.77507008652815     -3.93256966771623      0.97989424299716
  H   4.94065675355466      1.75939145528650     -0.63483249903926
  H   3.95821793835843      3.16412874123993     -0.33846000755391
