24
Coordinates from ORCA-job ./opt_b97-3c_parallel
  N   3.86910078411159      1.81738592478823     -0.46660373605886
  C   3.11719897727091      0.95651026474797     -0.25903699972911
  C   2.35478568618432     -0.20818599159343     -0.06591979520648
  C   2.98975231849343     -1.46422674732211     -0.05874776039213
  C   2.02991342634677     -2.44737214557982      0.04077037226975
  C   0.74124162061334     -1.86858344554741      0.06144884364548
  C   -0.33850987688678     -2.73666622691866      0.11213342901841
  C   -1.72555031421997     -2.65602773754348      0.05173997469689
  C   -2.61263329163387     -1.61130985607205     -0.07110141362070
  C   -2.47723589171673     -0.22603495596291     -0.10514491299955
  N   -3.62708996618373      0.48960868854201     -0.20741428625388
  C   -3.23599443519566      1.77050170645357     -0.13784920382648
  N   -1.92207856675602      1.97373201840820      0.01779433096304
  C   -1.37615260770113      0.73188277614693      0.03021968124263
  C   0.03405151218722      0.66732968826524      0.12441424907976
  C   0.59698357390152      1.95841430821935      0.38580676658757
  N   1.05552792894747      2.97860508112437      0.68969809017868
  C   0.94081155875275     -0.39259483530438      0.02163650972255
  H   4.05541988482605     -1.60316834885690     -0.13574828649291
  H   2.21283471251585     -3.50941217288414      0.07456034709639
  H   -0.00293771227655     -3.76617004989085      0.17754623497641
  H   -2.20530715784679     -3.62624378264396      0.08179058672410
  H   -3.65345339144631     -1.90249038754649     -0.14325003977927
  H   -3.93581389408766      2.58961387617077     -0.20081408404225
