26
Coordinates from ORCA-job ./opt_b97-3c_parallel
  N   -4.61111947573452      0.98124672168540      0.34115663082389
  C   -3.69524081511079      0.26974020901085      0.25633662527576
  C   -2.60314586307239     -0.60017176933596      0.14696808267785
  C   -2.65980504074901     -2.00836203998558      0.08503276850340
  C   -1.37712779030689     -2.49412141187546     -0.06990457752026
  C   -0.44870709260191     -1.42027084950636     -0.08719105939410
  C   0.90363477544335     -1.66449655352269     -0.16367479628411
  C   2.04620559015271     -0.87501250659087     -0.08821862062706
  C   3.31774988419585     -1.45722401845351     -0.09712051552352
  C   4.30178215784284     -0.46693467382653      0.09289754444643
  C   3.67497758048638      0.75214462071496      0.22614352284571
  C   2.25958974598856      0.57669382233241      0.10435446092036
  C   1.44123173860193      1.67203349941133      0.11753207917543
  C   0.04491310793572      1.90310747877571     -0.04125216485878
  N   -0.28851441702099      3.24938444816976     -0.12870324186375
  N   -1.00081164248493      1.11564540017579     -0.01216403527853
  C   -1.24761374222146     -0.17596034196556      0.03871014804549
  H   -3.56452547624629     -2.59128650582831      0.14199149126410
  H   -1.09949209351120     -3.53363770482263     -0.15046845737927
  H   1.13675131460696     -2.72065326978537     -0.26711042929443
  H   3.50112764721896     -2.51505049188756     -0.20942994131421
  H   5.36584810047798     -0.64054865892110      0.13054857584030
  H   4.15329607778321      1.70805113866435      0.37308732743789
  H   1.98650818603444      2.59707970513470      0.27779964417359
  H   0.35741887710398      3.86439534655152     -0.59252606934941
  H   -1.25482138581248      3.40598615868072     -0.36359319184277
