27
Coordinates from ORCA-job ./opt_b97-3c_parallel
  N   -5.25080077814985     -0.50962011044676     -0.96655557420841
  C   -4.15554283691116     -0.81559550564508     -0.72168670345545
  C   -2.83007037623020     -1.13831449410242     -0.41623520988108
  C   -2.27347458622783     -2.40744061235460     -0.22544168610671
  N   -0.98778798669394     -2.34812469967184      0.13730675072765
  C   -0.62631892444086     -1.04046259218556      0.16852386071909
  C   0.74435670836926     -0.77487939283211      0.35596777153202
  C   1.46852266513843     -1.91502368952824      0.82243482102652
  N   2.05056761501956     -2.78942197617710      1.31256841188250
  C   1.49255487767042      0.37044187194233      0.06260564710668
  C   2.88202351132115      0.37384727878696     -0.19943908022794
  C   3.81532698606192     -0.67204225162694     -0.17149234586765
  N   4.68037810813362     -1.44769703253867     -0.21096886007186
  C   3.26246366189004      1.65930281487701     -0.68178412851103
  C   2.17751398189399      2.49322241490942     -0.68258725465843
  C   1.04332499410949      1.78599428200957     -0.19845316091546
  N   -0.02855060935092      2.46471227171447      0.09966046162113
  C   -1.27590275643466      2.22017150871923      0.46172890446482
  N   -1.88116589657559      3.24391812534756      1.11710216443137
  C   -2.08723025798635      1.12891985259636      0.08489456662950
  C   -1.79410275808099     -0.19474921306930     -0.12714620358463
  H   -2.77411440591948     -3.35546915717359     -0.34614813639031
  H   4.26750654145874      1.90460619079886     -0.98444017583086
  H   2.15548647582481      3.54114107535666     -0.92825124293441
  H   -1.41627713724227      4.13463498285582      1.13961449778023
  H   -2.86588273052838      3.21883273610835      1.30878240879425
  H   -3.13503829707328      1.38375233474423     -0.03832408712050
