25
Coordinates from ORCA-job ./opt_b97-3c_parallel
  N   -4.48511804819306     -1.60508983152619     -1.10522555550859
  C   -3.59832729656064     -0.94648037755793     -0.73742534932366
  C   -2.60581453031700     -0.06402343184361     -0.31144400926421
  C   -2.83462073681298      1.31585104260277     -0.07062356853326
  N   -3.98267942632302      1.94812297893654     -0.33747750121387
  C   -1.66502704608962      1.89422170273130      0.46781877672426
  C   -0.66274263455992      0.93405486947046      0.53227210338233
  C   0.67341008133721      1.27340310718913      0.68591885709102
  C   1.84379377203941      0.58801140669403      0.39917856591833
  N   2.98398855216703      1.27432326716837      0.20257629719425
  C   3.82532452856011      0.34992877956930     -0.32322473318570
  N   5.05253861248426      0.68006409330146     -0.72956605749727
  N   3.36946712630218     -0.92174917588547     -0.42431877804056
  C   2.12561228671621     -0.85603069537282      0.06419637261064
  N   1.46692972688562     -1.95262325266185      0.38021789283276
  C   0.21641511459877     -2.18814808662709      0.67690526776520
  N   -0.92318367490757     -1.61372448749654      0.31964623559411
  C   -1.30034989764707     -0.38319483898640      0.13050664050761
  H   -4.77516187453487      1.43310855723405     -0.68013427980191
  H   -4.13768620892596      2.89081299820449     -0.03323390625956
  H   -1.53243334202416      2.94438522770749      0.67560899067913
  H   0.85088132217416      2.32921903198214      0.85696595691024
  H   5.67380150186530     -0.03654690704165     -1.05539886609997
  H   5.40310831337201      1.60239679301777     -0.55088405294546
  H   0.06314640299193     -3.12908314200906      1.20120284276432
