31
Coordinates from ORCA-job ./opt_b97-3c_parallel
  N   -2.67891630178731      2.70852246461939      1.96454943880679
  C   -1.86230265330416      2.19949080677661      1.31166643803646
  C   -0.75508570371800      1.65868451624087      0.60916926877529
  C   0.28103848226988      2.59302544408899      0.40460511618702
  N   0.06827283818064      3.88270988667506      0.79364414394801
  C   1.50455776378052      2.41086514746700     -0.28943570009861
  C   2.36423099091946      1.35885744220542     -0.41696707116670
  C   3.70337140465061      1.55838273324267     -0.86361895265686
  C   4.40659682161309      0.43406280015119     -0.50232866900059
  N   3.62408558497647     -0.51003740461233      0.09342779335790
  C   2.37437926465190     -0.02683632473027      0.12021785817226
  C   1.33798589648341     -0.93206791592305      0.41118558842111
  C   1.79632438001199     -2.18437317143515      0.91614822433001
  N   2.11860542517872     -3.17081170967835      1.43422374412745
  C   -0.03748915155576     -0.83914576684156      0.14327924486043
  C   -0.83997830001408     -1.98490527116960     -0.10535318064015
  C   -0.48601498653306     -3.31963624860493     -0.32685727354401
  N   -0.36512524429093     -4.45007874537618     -0.57449752573005
  C   -2.17272194831594     -1.56975209338612     -0.31782052693331
  N   -3.19121438359820     -2.34700695911913     -0.67303374280383
  C   -2.23131047529791     -0.15811466932449     -0.13551957458750
  C   -3.42029900604783      0.54906750083919     -0.33930523222357
  N   -4.45346770971653      1.02947959493047     -0.57441339569419
  C   -0.94104185462184      0.32663016580198      0.14083919354001
  H   0.85672805321416      4.49084166673973      0.91148962989466
  H   -0.75232148186575      4.11940236742561      1.32524213530564
  H   1.90225787551858      3.34530118300966     -0.67143880345094
  H   4.08960293893244      2.46850900088613     -1.29315312598619
  H   5.45949581631677      0.24219926950948     -0.64307913415585
  H   -4.10574012577342     -1.96020615445787     -0.82850004748802
  H   -3.05741112675148     -3.33421901515008     -0.81119902639539
