28
Coordinates from ORCA-job ./opt_b97-3c_parallel
  N   5.07027707489269      1.40894342501314     -0.75187395047705
  C   4.22067506692633      0.67296708727216     -0.45485770983228
  C   3.32941906406979     -0.33140775217486     -0.05420117540043
  C   3.81152619624689     -1.47004618835609      0.67586107797486
  C   2.78318864997492     -2.31996669601824      0.94862777199830
  C   1.59220293969405     -1.80538516990811      0.34470097543830
  N   0.59273875216050     -2.59829404459178      0.13369633396001
  C   -0.58843242091005     -2.52131604771085     -0.44971981514784
  C   -1.54707943472039     -1.51715664862111     -0.44695159631606
  C   -2.81645424510379     -1.95584514256263     -0.91448275263277
  N   -3.81758658152038     -2.34439399135506     -1.35497189035171
  C   -1.44200573496826     -0.16455676613321     -0.02842648269324
  C   -2.53942152984505      0.63920869849415      0.28870594514066
  C   -3.86436553330951      0.30866005344768      0.58553387312238
  N   -4.97901079716310      0.17131431845425      0.88813219059155
  C   -2.05256200872291      1.98976682818986      0.31684378054277
  N   -2.76503528611564      3.07161936720508      0.61805068057934
  N   -0.75434703077760      2.04923176515239      0.00666203774689
  C   -0.31620382758461      0.78136163311472     -0.16150496965569
  C   1.06614233683576      0.63899999591051     -0.43791645880222
  C   1.66008252582873      1.86948346559494     -0.85049131534678
  N   2.12696547910350      2.84807711674138     -1.26069515992477
  C   1.93266934181901     -0.43320154878065     -0.19228431296705
  H   4.85033113862840     -1.61018489915248      0.92751066705726
  H   2.83844707685998     -3.29479830248171      1.40192725042179
  H   -0.91975446362895     -3.46881162667100     -0.86207948713208
  H   -3.73967135070908      3.00599866396353      0.85131219502922
  H   -2.32752257813864      3.97550049656501      0.58808390380624
