25
Coordinates from ORCA-job ./opt_b97-3c_parallel
  N   5.30147261548514      1.05951477845953      0.17366164385475
  C   4.28727464253156      0.49539776218600      0.12294144648001
  C   3.08136158452356     -0.21351841486344      0.06405045277278
  C   2.91254316598664     -1.59494853931931      0.03363127817904
  N   1.62053101526358     -1.95748643556683     -0.04217536029325
  C   0.87124783149450     -0.83740524168031     -0.05921924718433
  C   -0.51970311096045     -1.01329193648098     -0.06630910244338
  C   -0.93587949182052     -2.38262171976526     -0.09533831899641
  N   -1.29420075405678     -3.48402503094058     -0.12801788773956
  C   -1.58805256505832     -0.09692546104038     -0.02521461562251
  N   -2.82619967152448     -0.60606347425807      0.01285234954873
  C   -3.69317082274535      0.43568685729211      0.05523407625067
  N   -5.00780666450771      0.19818721610416      0.10328053075557
  C   -3.02344710532978      1.67223370555516      0.03538134569126
  C   -1.66020696539109      1.39167790188562     -0.01485837272668
  C   -0.72202171226548      2.41943693228861     -0.08346533414180
  C   0.66056152333088      2.51770899960496     -0.11782919822100
  N   1.67154856785823      1.66866947693670     -0.05108166424401
  C   1.77660413866070      0.36623637045152     -0.00956575128597
  H   3.69138222500399     -2.34151548983497      0.06194058636899
  H   -5.32875352061265     -0.75338533486379      0.12475684000613
  H   -5.68109065924411      0.93761075039628      0.15996754639704
  H   -3.46440530022564      2.65584323782426      0.05010027817038
  H   -1.18801870702569      3.39897198884598     -0.10920748567566
  H   1.00634175342942      3.54553969978339     -0.18756545400060
