30
Coordinates from ORCA-job ./opt_b97-3c_parallel
  N   4.58176425055835     -2.48137825260016      0.61070551712190
  C   3.98382213379169     -1.51869288633962      0.35150659570376
  C   3.27528522102560     -0.35266945082259      0.04423446072426
  C   3.81735541483248      0.84443373841885     -0.49926487025701
  N   2.89030452382699      1.75650032898416     -0.71528022752723
  C   1.68735135601809      1.22475143632723     -0.30180689716073
  C   0.64016756244971      2.12806790266858     -0.20994611398947
  C   0.97199815676506      3.44497472165760     -0.64644548909638
  N   1.11279680748426      4.55357391046404     -0.96102306293168
  C   -0.67144732927773      2.04184557465951      0.38714789739568
  N   -1.12743815189157      3.19640655066250      0.91819393145210
  C   -1.56865099696822      0.93880651243622      0.35059217936436
  C   -2.86581735697660      1.29743094418218      0.80868085890688
  N   -3.85667828455657      1.67457878991903      1.28432825729718
  C   -1.44230397244575     -0.41770119174858     -0.03292913532210
  C   -2.56936800919855     -1.20575734024911     -0.38147554305945
  C   -3.83042199395903     -0.75565480999063     -0.80448423799096
  N   -4.87032103657335     -0.43467684047262     -1.21022208504736
  C   -2.22244314844903     -2.57028165467091     -0.33964578082844
  C   -0.89651982332505     -2.68247610529212      0.04546269814078
  C   -0.18334055770536     -3.88173819054513      0.18667718771892
  N   0.41449476149190     -4.86913375250647      0.31929374874638
  C   -0.33603775042599     -1.36525819415957      0.17712781841933
  C   1.01461739301407     -1.22007681883012      0.36660547653285
  C   1.88172966252461     -0.15547744312985      0.14101974560598
  H   4.85700438567820      1.02905968923202     -0.72239248850400
  H   -0.58732141674755      4.03972039142655      0.83580544435340
  H   -2.09793383181782      3.30409336243665      1.16032930925139
  H   -2.88108192645878     -3.38463929662342     -0.58936178092351
  H   1.52627771661374     -2.15204940139328      0.58553265510510
