23
Coordinates from ORCA-job ./opt_b97-3c_parallel
  N   -3.33686247887978      2.72917932630174      0.22970187946511
  C   -2.92715648543198      1.64493401871488      0.12925565489543
  C   -2.41213849835782      0.34784701499739      0.01072803428052
  C   -3.16002598247954     -0.80648480314365     -0.31132320457332
  C   -2.30852384074224     -1.89193554875362     -0.33654206521726
  C   -0.98770578369910     -1.47523526193114     -0.02807084963261
  N   -0.06324628676832     -2.39246875265424      0.18705956038922
  C   1.23698676441810     -2.37640639183640      0.39890175724459
  N   2.21824574444130     -1.51272492930481      0.14350759562771
  C   2.27551788129940     -0.21850789417985     -0.02987105085944
  C   3.52773015477532      0.38763838940161     -0.33843901469988
  C   3.40387479248908      1.76006788752647     -0.26209409669730
  C   2.07224638708099      2.08191622525920      0.07128166897582
  C   1.31556995127947      0.91435372194152      0.19155633427529
  C   -0.06450909275672      0.96154806573277      0.28399555467981
  C   -1.04223520631598     -0.00412044774286      0.15693536162558
  H   -4.22327296351738     -0.81617248931650     -0.48710156700245
  H   -2.57385194426898     -2.92197906720275     -0.50661644800281
  H   1.61875934164189     -3.34002506889553      0.72346845273450
  H   4.42142982461233     -0.18174049608073     -0.53332463673706
  H   4.19389209591367      2.47716368784973     -0.42188364368911
  H   1.67421240989296      3.07978161746651      0.17734984568354
  H   -0.45632004242655      1.97013288135034      0.37761398903395
