30
Coordinates from ORCA-job ./opt_b97-3c_parallel
  N   5.01616011396408      2.14560505884134      1.35574148474065
  C   4.33551777708121      1.27853700470657      0.98558477586743
  C   3.47687347247948      0.27431923377606      0.52850168831550
  C   3.79642952990839     -1.02780724615038      0.15968433841940
  N   2.73136013490721     -1.69329850757092     -0.32808763491536
  C   1.66765629394558     -0.86926664673845     -0.26771875571250
  C   0.39853985911976     -1.44898627609024     -0.47730308169344
  C   0.45930665565084     -2.73888905716761     -1.08259743265875
  N   0.48594279628663     -3.71963874446839     -1.70056185241960
  C   -0.85632243498164     -0.99471402650334     -0.06513501627999
  C   -1.92027348419932     -1.89590688324417      0.26891970034207
  C   -1.89047933971674     -3.29792949647168      0.35538723263643
  N   -1.95194537949446     -4.44989103548641      0.48824452351517
  C   -3.00390183981013     -1.15786988405028      0.73313333484324
  C   -2.70849380080699      0.20912364505771      0.63136363681818
  C   -3.57725000573291      1.21744574476229      1.07839661551085
  N   -4.30760579172915      2.01403865973623      1.50411722302980
  C   -1.38837440990130      0.37000939338698      0.13866250008901
  C   -0.94327490733790      1.62653155948957     -0.33862123299110
  C   -1.96778659209414      2.50324381699490     -0.78416632835355
  N   -2.69639834463952      3.26993602230870     -1.26578092163395
  C   0.34175872877605      2.22345402649652     -0.40854574690816
  N   0.44070115724382      3.48490831792965     -0.88899470035853
  C   1.55129470112454      1.70770152708262      0.11713186291120
  C   2.08178263732620      0.45357795982967      0.21191177723587
  H   4.76114978006683     -1.50416985967946      0.23166400080174
  H   -3.90803474676398     -1.57167771081432      1.14613946312714
  H   1.33399551178297      3.93280689774102     -0.96559503879067
  H   -0.36773587120867      4.01061503340225     -1.17326606336909
  H   2.24944977485449      2.49247426579242      0.39163631438068
