23
Coordinates from ORCA-job ./opt_b97-3c_parallel
  N   3.18843080929815     -2.78036492918836      0.00401946511914
  C   2.79251447703931     -1.68773180538775      0.00314278896653
  C   2.34583357881425     -0.35908794229569      0.00268488496084
  C   3.16104455022485      0.78139419290018      0.00271230451162
  C   2.34763521762962      1.90575589155454      0.00225925642752
  C   0.98528251663491      1.53684062298302      0.00193050381711
  N   0.08586660341598      2.50702117755509      0.00145793471163
  C   -1.22920721412986      2.52451841068159      0.00109914118560
  C   -2.24492080528734      1.55509500684205      0.00114170773918
  C   -2.29389734021988      0.17931340841333      0.00147853081353
  C   -3.53335507247328     -0.49973290657537      0.00142449668944
  C   -3.32342966222388     -1.87644598139098      0.00173857536101
  C   -1.94888813601627     -2.11806264709115      0.00199149678874
  C   -1.25245415280595     -0.89335892836071      0.00186352725714
  N   0.06415690861056     -0.91559072092176      0.00214263858285
  C   0.96890243244074      0.03149265487013      0.00219476669675
  H   4.23865111183207      0.76891634327668      0.00303891024261
  H   2.66893318513607      2.93436149101636      0.00215636274282
  H   -1.62200135087225      3.53811492574991      0.00072581879398
  H   -3.22881408581378      2.01463006276920      0.00084381681879
  H   -4.49319052918424     -0.00550099725470      0.00117586329009
  H   -4.09599660337893     -2.62921440562008      0.00178072251305
  H   -1.45179923047087     -3.07434798772555      0.00226862087001
