22
Coordinates from ORCA-job ./opt_b97-3c_parallel
  N   4.60065527836937      1.90286646430065     -0.32138386045630
  C   3.84471845067423      1.02741403527768     -0.21683540842055
  C   2.95767537939774     -0.05095339512500     -0.09190758732095
  C   3.32014987083978     -1.40749035057302     -0.01918970471397
  C   2.18101768749192     -2.18268706655124      0.13591807618995
  C   1.03393199840268     -1.36589623620702      0.14673695849841
  N   -0.14332105483609     -1.93001248890394      0.15487656042803
  C   -1.36234936456025     -1.43757233548259      0.04665311351779
  N   -2.38321019893864     -2.33094337209529      0.00416841970026
  C   -3.48157536949665     -1.58712461648743     -0.15344557654997
  N   -3.30264064541446     -0.25040072350803     -0.20743398469995
  C   -1.97436183692675     -0.08045546900621     -0.08027913570612
  C   -1.49014768753964      1.23309893981238      0.03880138305000
  C   -2.49326891342091      2.24799903167574      0.03937443966333
  N   -3.23164902952752      3.14226422313007      0.05740264986165
  C   -0.19451563227283      1.76598998998109      0.16165010700636
  N   1.02255432841087      1.26731710434175      0.07019671145951
  C   1.54545098645482      0.07488774341995      0.02987668348985
  H   4.33373021298471     -1.77065776683297     -0.07339502070272
  H   2.13483992270091     -3.25627539586671      0.21031793293174
  H   -4.46432417449621     -2.02575829827652     -0.23653487504084
  H   -0.18830027199595      2.84189735167737      0.29882848251435
