27
Coordinates from ORCA-job ./opt_b97-3c_parallel
  N   -4.76571760982186     -1.90151913207502     -0.16792484546692
  C   -3.95437070575235     -1.07529622207390     -0.06907798908612
  C   -2.99797686666111     -0.06200949483924      0.05146798694829
  C   -3.22010059394972      1.29225890182263      0.33626933615246
  N   -2.08396537584086      1.99287544499065      0.37437107134659
  C   -1.05138773660756      1.13362277587633      0.15548681857477
  C   0.19871685624233      1.73780402683172     -0.02425184326110
  C   0.11653801943819      3.16335772725209     -0.04905430110272
  N   0.21993940631148      4.31806984870087     -0.11488290789782
  C   1.53009109738126      1.25440797165327     -0.17151743931734
  N   2.46528966438996      2.17450573727687     -0.52063956752162
  C   2.03504903194021     -0.06329524935602      0.11126459911783
  C   3.43696891224642     -0.04619013081226      0.38147600698052
  N   4.57621936954291      0.00070080882494      0.60031585424439
  C   1.49040909761025     -1.34605149188536      0.11858094780353
  C   2.31639557551057     -2.48075922944702      0.27875307433033
  C   1.59204270054399     -3.64211949801146      0.01627991342992
  C   0.27951355991874     -3.30647902306392     -0.29561029396176
  C   0.11854348319793     -1.90850877633023     -0.20887872223644
  N   -1.09255966409163     -1.42539995351909     -0.27031782397746
  C   -1.58617077424706     -0.22938261873773     -0.04491218809634
  H   -4.17269827293732      1.76773587224737      0.51149733151692
  H   2.23444039330680      3.15345204932642     -0.51142840983924
  H   3.44247599151029      1.94547550596686     -0.48788232372617
  H   3.36858968637149     -2.44942439755275      0.50613051699281
  H   1.99610163174643     -4.64161952586081      0.05359165088698
  H   -0.54096507199880     -3.97272051370632     -0.50257853773421
