27
Coordinates from ORCA-job ./opt_b97-3c_parallel
  N   4.95684939699966      1.26188541878886     -1.30528472380567
  C   4.12799341214337      0.52798662606105     -0.95134840369715
  C   3.12488415889653     -0.34576889110094     -0.52130407753401
  C   3.23192162937383     -1.70923771861611     -0.22461683631811
  N   2.10583820062900     -2.24238579960502      0.27832104830928
  C   1.17897540758273     -1.26427574915264      0.29669337239549
  C   -0.15554914641977     -1.59712896432230      0.49043048464240
  C   -0.39526254452576     -2.94726123238936      0.88327279304757
  N   -0.60216083540543     -4.02604115989753      1.25266190299777
  C   -1.32823911349549     -0.86168122310067      0.17322551489685
  N   -2.46769351348866     -1.53738316382093      0.06840114303323
  C   -3.37920386057803     -0.61633074783958     -0.36348022683857
  N   -4.63558528489688     -0.96499424984394     -0.61132943075164
  N   -2.92370391820763      0.63740368058437     -0.51808686145089
  C   -1.62605761207878      0.57167386412118     -0.17196053316790
  C   -0.93573179407899      1.77134801055128      0.00045603803780
  C   -1.70831067606345      2.94932391077014     -0.15829085650748
  N   -2.25505507618641      3.97185777666055     -0.23277056734023
  C   0.43346791161102      2.00380611308670      0.36453406055564
  N   0.73046701347663      3.16441065016277      0.98245525480309
  N   1.48262163007950      1.28201029680990      0.03161843753606
  C   1.81512926466751      0.03911530861052     -0.11547628529350
  H   4.11339882631326     -2.31892661917669     -0.35564225419546
  H   -4.92785121726699     -1.91446151222770     -0.46856778103706
  H   -5.29246483229568     -0.28101158903011     -0.93993212043760
  H   0.02629457336598      3.86537661276389      1.13497471492140
  H   1.69473790424884      3.44864676685192      0.99866081989883
