26
Coordinates from ORCA-job ./opt_b97-3c_parallel
  N   2.90391369539194     -2.96499293960185     -0.01086523611701
  C   2.50703143075007     -1.86986374017652     -0.02557006508515
  C   2.09087290001023     -0.53761732249164     -0.03638407610586
  C   2.98146282913223      0.55958185834041     -0.03598567374797
  N   4.33218386812040      0.47200541672422     -0.09376944564623
  C   2.20967736649837      1.73086412845330     -0.02647622963534
  C   0.84662701741433      1.41214283800806     -0.01923679388656
  C   -0.10024503320842      2.44246696456772     -0.00939864653391
  C   -1.47658816295027      2.54015181781759      0.00048044409438
  C   -2.53808566900441      1.63627529039361      0.00884010521718
  C   -2.65876355240060      0.26170744012758      0.00907602092575
  N   -3.93425893283857     -0.23669720386050      0.02100323366619
  C   -3.82612224658334     -1.57043851324423      0.01801008993985
  C   -2.49667910643545     -2.00265113348788      0.00381365135508
  C   -1.69489440327279     -0.85435959651517     -0.00225973816585
  C   -0.30492210436077     -0.94849481520519     -0.01762925811553
  C   0.74611407968256     -0.05712361770385     -0.02556108951645
  H   4.87716288872043      1.27315794420293      0.16713586933342
  H   4.75855387597941     -0.41768398421877      0.10066734277691
  H   2.60314641779047      2.73585792657554     -0.03180602935587
  H   0.37859879782167      3.41672316166164     -0.00955971000808
  H   -1.81609603554807      3.56924908457833      0.00469633982195
  H   -3.51471604918074      2.10616576711275      0.01787326265247
  H   -4.71123367705485     -2.19037815001613      0.02609769883121
  H   -2.13882316554455     -3.02037614260848     -0.00171585867682
  H   0.03056064757069     -1.98157844213346     -0.02550775441777
