26
Coordinates from ORCA-job ./opt_b97-3c_parallel
  N   3.78882985075648      1.72927849884599      0.30283367046813
  C   2.73508271489984      1.25804003744504      0.16836047131085
  C   1.41257087861551      0.74987067520060      0.02134258270202
  C   0.44898771174353      1.77177281460082     -0.05675690865162
  N   0.90392825968839      3.08393897045946     -0.10589434145515
  C   -0.96589135019263      1.70892337036059     -0.16112866224984
  C   -1.96534865187224      0.78189003017634     -0.08092988221701
  C   -3.32857803178813      1.22992798391795     -0.13461441617174
  C   -4.16822871721406      0.15389006913389      0.01750199037961
  C   -3.38252872846748     -1.01294691094827      0.15224567622522
  C   -2.02900039056080     -0.68404826803259      0.09251890468629
  C   -1.05403708966477     -1.67361262479330      0.10544350879132
  C   0.31657912267367     -1.69266722199872      0.00335048997459
  N   0.88216207736204     -2.94794536153110     -0.02327094955500
  C   2.19763032586737     -2.77186018667448     -0.11269887105422
  C   2.55984769750028     -1.41845500148049     -0.12510179143510
  C   1.37854682175492     -0.67213627854657     -0.05914267208527
  H   0.29226594511531      3.78069030753649      0.28088860035381
  H   1.87234965574147      3.25103993265317      0.11114332196780
  H   -1.37389568474938      2.70314997833383     -0.31665327869698
  H   -3.61967922711407      2.26214908084302     -0.25286942905687
  H   -5.24645357063438      0.18681245497963      0.02959093483327
  H   -3.75868443942945     -2.01829210798233      0.26371642100698
  H   -1.45000455642675     -2.68013608652842      0.18215037892148
  H   2.86596828288451     -3.61933260208143     -0.16720727641371
  H   3.56092391901058     -1.02451238978921     -0.17932322087875
