27
Coordinates from ORCA-job ./opt_b97-3c_parallel
  N   -4.03393703024420      2.28255297769433      0.37926583085165
  C   -2.89224878821260      2.08325020672481      0.28911100456710
  C   -1.49883632490097      1.94869327943063      0.23885257206900
  C   -0.61581248666906      2.98038842875704      0.61108507139784
  N   0.65644459856021      2.59881185786485      0.58018962233726
  C   0.68090100503921      1.28657882461263      0.22274606631555
  C   1.94345143349419      0.77603218621211     -0.10109133680969
  C   2.99402856076101      1.73232730513158     -0.13363482645796
  N   3.93692749986776      2.40390223260011     -0.23338604146909
  C   2.37358378551240     -0.55790632448740     -0.37065458903400
  N   3.52080871037127     -0.73770865122705     -1.06440369887636
  N   1.87492937165432     -1.67275980831519      0.14754349099256
  C   0.69211648659583     -2.15513821548797      0.37902467752523
  C   0.55438241928986     -3.47675152861049      0.89079358387571
  C   -0.73577754350831     -3.90668837686514      0.65824475380870
  C   -1.47722146312307     -2.88209627770254      0.03445795004990
  C   -0.68211940384358     -1.73915619262863     -0.08163372404182
  C   -1.21458384279541     -0.46718808907263     -0.31223804020018
  C   -2.53963718809969     -0.49602095841351     -0.84640299618765
  N   -3.57136769316699     -0.59783025997977     -1.36570581199367
  C   -0.69410413194752      0.79807574175556      0.00625050682880
  H   -0.90003184727159      3.97716748873477      0.91142708324424
  H   3.96779821614243     -1.63414770169527     -0.98157112916224
  H   4.10131413585692      0.05052552510545     -1.29563774920211
  H   1.38207086258082     -4.05476211450970      1.26589422934414
  H   -1.12707710840724     -4.88248792402431      0.90076967230123
  H   -2.52234552144255     -2.93626418408763     -0.22024854086979
