22
Coordinates from ORCA-job ./opt_b97-3c_parallel
  N   4.68106537601085      1.17278397841273      0.00035182192334
  C   3.75702238996144      0.46704553168004      0.00237779113824
  C   2.62910674073262     -0.36519456940833      0.00470756123920
  C   2.64809791756211     -1.76329593146159      0.01127517205272
  C   1.33618961803980     -2.22965830397295      0.01164123524383
  C   0.43997241395481     -1.14883744193229      0.00533529181136
  N   -0.85595489941635     -1.40952692206879      0.00470363980649
  C   -1.91577877197783     -0.64954774282010     -0.00042940140229
  N   -3.11823906182565     -1.30486378270145      0.00077630553976
  C   -4.07701339831551     -0.37733537378788     -0.00507127143017
  C   -3.57728019478039      0.93283050238213     -0.01039155605948
  C   -2.18652546598612      0.84840154297940     -0.00782792023215
  N   -1.47610256526578      1.97231452871936     -0.01190203269996
  C   -0.19058531112815      2.21469915510599     -0.01107570483018
  C   0.98462478184217      1.43285464534744     -0.00585262193562
  C   1.27029248221774      0.09354269210136      0.00068646608900
  H   3.54199846660315     -2.36543443313446      0.01533021195492
  H   1.01364717450726     -3.25726267574798      0.01599868816004
  H   -5.11688950890205     -0.67224597814460     -0.00532450342346
  H   -4.13072006952308      1.85764238496928     -0.01554007947510
  H   0.02609804753458      3.27983180445428     -0.01557183340622
  H   1.87023964875416      2.06055502792843     -0.00749894606434
