25
Coordinates from ORCA-job ./opt_b97-3c_parallel
  N   4.84323861445252     -0.62832510904333      1.24934955554483
  C   3.95910345022974      0.01260337766494      0.84445803097522
  C   2.86428301086653      0.73232359860377      0.36002934712608
  C   2.86534167050455      2.03418133119283     -0.12846320499611
  C   1.58774257251048      2.37570357946575     -0.58670070426952
  C   0.70811469759061      1.30804153517593     -0.39667644882723
  N   -0.59169256162024      1.49045030777429     -0.54913171007550
  C   -1.62505888703352      0.74035464003862     -0.26803398028991
  N   -2.84279124387680      1.31323030476954     -0.17613025632487
  C   -3.64859135342750      0.31277606002990      0.21916689931237
  N   -4.93672108923352      0.51349820965832      0.49202865968650
  N   -3.10574655357393     -0.93491430871151      0.32604210166023
  C   -1.82264917785383     -0.75383044577985      0.02779613710042
  N   -1.04515150370782     -1.80762619108987     -0.12938710068985
  C   0.24254922598618     -1.99815350956341     -0.17600967093866
  N   0.61820985261549     -3.25017041905540     -0.54945396101490
  C   1.34931480846948     -1.16348255983479      0.22542968763592
  C   1.54851549049746      0.16946954353833      0.14609971145460
  H   3.72994397851923      2.67929781303601     -0.13800324298075
  H   1.27385596318358      3.33923059141125     -0.95073875972258
  H   -5.33225741251412      1.42920303444278      0.38730906451573
  H   -5.51103112395032     -0.25529991227710      0.78309009229262
  H   1.56927534753991     -3.45528526789235     -0.79399716529401
  H   -0.10277329294459     -3.87437197619936     -0.86711080815851
  H   2.20961570216980     -1.73398879865423      0.56172588377824
