31
Coordinates from ORCA-job ./opt_b97-3c_parallel
  N   -5.04474194466073      0.78443021988980     -1.42925178724709
  C   -4.03000319927890      1.06038016130340     -0.93301554552973
  C   -2.80021555110960      1.46621228163219     -0.39741098487926
  C   -2.46057492881870      2.82771198311053     -0.19422860217928
  C   -1.17103696096758      2.91464625035350      0.27976533482143
  C   -0.59224817036229      1.62446056048393      0.29845470170833
  N   0.69357037368081      1.52511970513389      0.52359682207640
  C   1.57480240210985      0.58265145701138      0.28775038529620
  C   2.94074894916389      0.94233996940714      0.28963092002074
  C   3.47885048735089      2.18612613111192      0.62006766413570
  N   4.02267993945874      3.18185774575863      0.87925323038079
  C   3.70649272684472     -0.13980997190823     -0.23517026604600
  N   5.03362570704197     -0.11827900544726     -0.39820660622380
  C   2.83388048958303     -1.19634345252896     -0.52062860949398
  C   1.52174310015691     -0.84151946765022     -0.17595931673515
  C   0.49842507989701     -1.79754051977253     -0.11962563120040
  C   0.92452467613721     -3.10344186512072     -0.48727948297905
  N   1.26974493199128     -4.17193809260337     -0.78705389440452
  C   -0.85469354431900     -1.77230598153991      0.34901792398876
  N   -1.32221448646706     -2.95375690181939      0.82467440109920
  C   -1.80614374951277     -0.70876539359547      0.24734639981064
  C   -3.12823749796303     -1.14709610307685      0.53638245984469
  N   -4.15114826156137     -1.58852701554629      0.86636813799144
  C   -1.69078134032159      0.65394515295636     -0.05823344491948
  H   -3.12276789172786      3.64986514767507     -0.41249868463592
  H   -0.60872462036104      3.80729676642132      0.49363343688160
  H   5.51685365932539     -0.88031376775102     -0.83569261665009
  H   5.56369824232586      0.70578608395276     -0.17591399038855
  H   3.14458656682788     -2.16829916965468     -0.86528010255928
  H   -0.74087143185938     -3.77219234366833      0.79980688197685
  H   -2.31114650971350     -3.11133888671263      0.91750713263415
