24
Coordinates from ORCA-job ./opt_b97-3c_parallel
  N   -2.75511381857896      3.28083506808462      0.08164652502479
  C   -2.52982296611080      2.14208075737652      0.02113839639171
  C   -2.39391828825509      0.75320822292266     -0.10612025624949
  C   -3.41003562827504     -0.02694252168502     -0.72591737536693
  C   -3.02717996061744     -1.34445150022170     -0.77785033378582
  C   -1.75788550905302     -1.47895402643866     -0.15943123304575
  N   -1.36197350967782     -2.63947868113314      0.28495612789627
  C   -0.23333463078417     -3.04880697308290      0.84082917466248
  N   0.99475081380380     -2.76573924160221      0.49481932027969
  C   1.56204976710604     -1.71172151337923     -0.03590205437159
  N   2.80410471349495     -1.85252014376775     -0.57775310984094
  C   3.28957798800859     -0.63230694271611     -0.73800671134538
  C   2.41436155929667      0.39044023115228     -0.27273507094950
  C   2.71368034229989      1.75352109463304     -0.38427933457789
  N   3.04209418200272      2.85861251960632     -0.53181911718425
  C   1.23038173635873     -0.26493458961644      0.11841767603143
  C   0.00980206323885      0.37751104011873      0.41752886957776
  C   0.13390965911208      1.71064559742023      0.90617077734622
  N   0.26172634067967      2.72944479862497      1.44568623713839
  C   -1.28709181357376     -0.08420641422767      0.17764970121412
  H   -4.34110066612871      0.38643983924022     -1.07831135855223
  H   -3.61917518561896     -2.18229419128469     -1.10479316621852
  H   -0.34267171700735     -3.87861103963668      1.53227661091841
  H   4.25827471217382     -0.46092129048883     -1.18305039869509
