29
Coordinates from ORCA-job ./opt_b97-3c_parallel
  N   -3.14621950900218     -3.43249404621691      0.03350639691343
  C   -2.39043863047939     -2.55143041501841      0.02766364413644
  C   -1.45651379291469     -1.46991456168875      0.01943645526800
  C   -0.13234320790603     -1.95744468270698      0.02143996154121
  N   1.08217377169356     -1.45590065756961      0.00100916152774
  C   1.61313437923108     -0.25557895173512     -0.00882133059967
  C   3.02744685845664     -0.14377070859869     -0.03238003523172
  C   3.95556104071100     -1.18695596537233     -0.03832522193172
  N   4.80785681013193     -1.97957982444729     -0.03924481777863
  C   3.39012116764385      1.22538508626862     -0.01848613949189
  N   4.65406341709227      1.68720747638288     -0.06576913998913
  C   2.21117953587409      1.98919918752479      0.00965708214453
  C   1.09517772616249      1.14666771499386      0.01324898466246
  C   -0.18560277330250      1.67888625139516      0.02204145464254
  C   -1.47561363802849      1.17906110643303      0.01475821852034
  C   -2.56044913136582      2.06635782857357      0.00804692455578
  C   -3.75948406783319      1.33635868497347     -0.00636104514593
  N   -5.01179316015797      1.85141946929253      0.02188037741558
  C   -3.44154635089287     -0.03701605137408     -0.00223757191373
  C   -2.05716181489406     -0.19619228398338      0.00832099537238
  H   -0.10993349438444     -3.04374002535565      0.03679851700946
  H   5.41638432249153      1.04283127165380      0.05370731999107
  H   4.84487200194287      2.65180944797335      0.13115164314503
  H   2.16853352096530      3.06780697039963      0.01664238705165
  H   -0.17393727015138      2.76519792193838      0.03110968680530
  H   -2.47419049242666      3.14190006671796      0.01445049723362
  H   -5.14597940965221      2.82198126295028     -0.19538288856626
  H   -5.78713462941499      1.25171678918424     -0.19478460511495
  H   -4.16038455088947     -0.83973846088884     -0.00370436627207
