29
Coordinates from ORCA-job ./opt_b97-3c_parallel
  N   -4.79375875479178      0.67361325831176      1.57350167244823
  C   -3.82593409876732      0.89993578235472      0.96902347490657
  C   -2.69639836665793      1.30262608389344      0.24671663384909
  C   -2.66904539212081      2.49272302009475     -0.48623028958277
  C   -1.42256738134210      2.66965982559572     -1.08163426585570
  C   -0.57657628582862      1.61866897494782     -0.71553123812385
  N   0.72610886671638      1.78734873785549     -0.81580704955826
  C   1.74547701917598      1.13101945988300     -0.32702429620362
  N   2.90974319606857      1.80648938496824     -0.17511839181104
  C   3.79289229153223      0.93301209205194      0.33090324042564
  N   5.02903688903577      1.32214365632649      0.65496049356303
  C   3.26192862420159     -0.38526082908252      0.45428791827631
  C   1.94764168894540     -0.30916083173488      0.06405712950024
  C   1.14901821905331     -1.45053564819528     -0.22280688018912
  C   1.90458845541115     -2.63445988161921     -0.41801149319366
  N   2.49898466059232     -3.61965953392938     -0.58594634439836
  C   -0.23593498047604     -1.63723329440945     -0.31299661354309
  N   -0.68949625108904     -2.82935921109465     -0.77459023370179
  C   -1.28291691024233     -0.73978604147043      0.17255891689852
  C   -2.34233067931192     -1.48427903961585      0.76729784220353
  N   -3.13030454569405     -2.19682365853216      1.23588201103266
  C   -1.44537369862207      0.61667850928589      0.02787487218895
  H   -3.50008507985160      3.17796114287426     -0.54013211518780
  H   -1.07729941728867      3.54544527651246     -1.60402368114609
  H   5.68766810149778      0.69547187118768      1.07651268780083
  H   5.28386189082478      2.28649435075787      0.53580624054053
  H   3.80344849767810     -1.27317831320248      0.73798165271474
  H   -1.65022008198564     -3.08663948476753     -0.63213448855583
  H   -0.04559993496865     -3.59401345804741     -0.89066860939996
