27
Coordinates from ORCA-job ./opt_b97-3c_parallel
  N   2.18776546466095     -3.59617274509993      0.43345953458254
  C   1.42553101482701     -2.74098169389009      0.25018909712855
  C   0.37726646228736     -1.78156286976780      0.07995630676425
  C   -0.85791904416244     -2.45507610187333      0.01840991888928
  C   -2.19434002534858     -2.12624035568406     -0.08791168532058
  C   -2.91461799199620     -0.94195399359569     -0.09275633101319
  N   -4.26526180448571     -1.00320229446971     -0.17266820475275
  C   -4.65672859746011      0.28088334810382     -0.09453974984058
  N   -3.68608962847494      1.19926548598711      0.03220820891533
  C   -2.53952303708556      0.47118602139858      0.03416609386843
  C   -1.34039668735330      1.15686296905818      0.10720635090165
  C   0.00562700204625      0.82609608650991      0.07005651608074
  C   0.94757728570488      1.88561372483355      0.07589881107787
  C   0.68562707514287      3.25740495437037      0.13462579337367
  N   0.54166114636717      4.41083045807679      0.18107545380232
  C   2.25340258176029      1.36071120877298     -0.02077585446041
  N   3.38631738060602      2.05716585631368     -0.07594746842370
  C   2.14686154543307     -0.05477552013084     -0.05842767505881
  C   3.32380276488574     -0.79756161832921     -0.21836626565738
  N   4.40071047394643     -1.20745595049308     -0.37782060009929
  C   0.78298126883921     -0.43398755704587      0.00994758475881
  H   -0.71641672895045     -3.52685113446155      0.05705462396769
  H   -2.84812435462145     -2.98709576296100     -0.15768942174301
  H   -5.69938254232123      0.55909850784357     -0.13135835791298
  H   -1.51830664534114      2.22494685129984      0.17210388750826
  H   4.27179141695214      1.58858631501116     -0.16444218578740
  H   3.37678833384154      3.06149565832256     -0.06559858164973
