26
Coordinates from ORCA-job ./opt_b97-3c_parallel
  N   4.56415485307426     -2.46724293751563     -0.04542665932314
  C   3.62095453186338     -1.79207876632671     -0.03536725905508
  C   2.39160092830255     -1.06804129109239     -0.03878491782693
  C   1.27300345696883     -1.92459127349040     -0.14927959572954
  N   -0.02999631576179     -1.79007553376995     -0.09672686512701
  C   -0.90775895263688     -0.81458974715005     -0.03319978627756
  C   -2.27688723755519     -1.16261882246053      0.05524418019736
  C   -2.80959908022762     -2.45430233883105      0.11673092049954
  N   -3.34652215799664     -3.48361867938747      0.17136560312836
  C   -3.06975279587242      0.00618753341296      0.03156353086560
  N   -4.39679269793787      0.06207627274048      0.08827104206122
  C   -2.19259408837244      1.12300249915044     -0.07109561599560
  C   -2.64830711333652      2.44361088566131     -0.11540344105735
  N   -3.08624035500982      3.52083289004387     -0.14925787490166
  C   -0.85505427572940      0.67829663153459     -0.08896171971303
  C   0.19056707076921      1.58015325655399     -0.08809854114028
  C   1.56822177650366      1.45170149055860     -0.01228978147194
  N   2.29586899604369      2.59425890172027      0.04499845289108
  C   3.56662174549115      2.17693244555915      0.15154496358090
  N   3.76213167803486      0.84755838062135      0.16205286451251
  C   2.52313676913092      0.32322153812935      0.05786180354112
  H   1.56665972821880     -2.96319039951911     -0.26837734382770
  H   -4.94435904949702     -0.77787714113165      0.16019411661828
  H   -4.88111512662589      0.94203714057003      0.05304644954243
  H   -0.10809561281033      2.62238488310695     -0.11359672116282
  H   4.39011941246777      2.87102723591280      0.22531676127305
