31
Coordinates from ORCA-job ./opt_b97-3c_parallel
  N   -2.15105958630179      4.44012130027832      0.71440287534763
  C   -1.54303273505478      3.46556860441019      0.54513394974648
  C   -0.79582963103392      2.26851638611693      0.34767689076877
  C   0.57582545587998      2.47851443631353      0.49601874380620
  N   1.64512172071563      1.78150338925575      0.17561603957326
  C   1.92749001394808      0.52222359358908      0.01634222501794
  C   3.25149659817321      0.14258383262432     -0.34264081884778
  C   4.30240974703128      0.99106037375655     -0.69100848833805
  N   5.23340805668562      1.62048530025124     -0.99326360061887
  C   3.39597875804652     -1.24236122993615     -0.12105181409863
  N   4.51186459510100     -1.94832263404260     -0.31925090602054
  C   2.15868780688792     -1.76012495449812      0.34083730162433
  C   1.20771446758983     -0.75295003196340      0.36224589285878
  C   -0.17344545945355     -1.03883088994505      0.49447739620794
  C   -0.40639458980002     -2.36612622906526      0.96495195002868
  N   -0.50663326804550     -3.42084002182905      1.43859620527177
  C   -1.31580622466873     -0.32000075083874      0.12163207339663
  C   -2.55028567064238     -0.96072871236507     -0.16552743367648
  C   -2.87687264286382     -2.31118869503227     -0.31536792635638
  N   -3.31485953117082     -3.37115377706620     -0.51633461865761
  C   -3.50842295158585      0.02953170013018     -0.51152348283243
  N   -4.76223092317215     -0.22444374782890     -0.89174067792208
  C   -2.90152263166749      1.29430198114566     -0.39459455158580
  C   -1.57392183339545      1.14132491966217     -0.02606101166760
  H   0.82492755368318      3.48021368920692      0.83309351775584
  H   5.35390983106658     -1.49574803595124     -0.63016896816304
  H   4.57194001772828     -2.91274456203762     -0.05036216232050
  H   1.97339534741097     -2.80142377521273      0.54530121181680
  H   -5.37998025614405      0.51212843921924     -1.17667593233532
  H   -5.09194247926497     -1.17207398058070     -0.96474279394591
  H   -3.40133767468417      2.23769502803241     -0.53668227413617
