30
Coordinates from ORCA-job ./opt_b97-3c_parallel
  N   -5.55625185323168      0.05756358872359      1.05157889798766
  C   -4.54696310105428      0.55095648154798      0.74902445507251
  C   -3.31116487909166      1.08903970821431      0.38035409060003
  C   -3.01315465620886      2.40928253451096      0.04029613781138
  N   -1.73817775520738      2.56911334726011     -0.33736270179499
  C   -1.12969447015404      1.36330521950546     -0.24070107077925
  C   0.25909607764046      1.33956270500575     -0.39668233025355
  C   0.79340365125035      2.57344946008646     -0.87556496432879
  N   1.26128093688434      3.52176804838595     -1.35160205104963
  C   1.21041624693754      0.34475962097947     -0.09004268797675
  C   2.57379854818883      0.62439148419626      0.10757689096508
  C   3.27988497437905      1.81893628272630      0.26807541810624
  N   4.01590119135195      2.69785383670972      0.46774019787604
  C   3.22437076882902     -0.63671558431195      0.28294273080385
  N   4.51368535864146     -0.81889322306005      0.54555315612642
  N   2.36685097751493     -1.65678986676981      0.16769563816555
  C   1.13481174863935     -1.14048608279348     -0.02245000894993
  C   0.13496069523084     -2.10402728395058     -0.25103260742128
  C   0.67054080046421     -3.41094358856472     -0.44076215266103
  N   0.94217566795244     -4.52237572778298     -0.64136186803995
  C   -1.28631512970930     -2.08591684995689     -0.20344529237283
  N   -1.92288420238199     -3.26044181728839     -0.43410901100270
  C   -2.15757742264000     -1.03315573837392      0.15020072396633
  C   -2.11134915883762      0.33374976856444      0.16002232963437
  H   -3.69295989539992      3.24710140408179      0.06295235966813
  H   5.13875197630240     -0.03795633296550      0.64119963109124
  H   4.86879072279860     -1.75100751526079      0.66359667715510
  H   -1.41699136780866     -4.11514371152363     -0.58944680997102
  H   -2.92233491000296     -3.31445191287735     -0.38098348062988
  H   -3.14869525427732     -1.40363035081847      0.39247146650168
