25
Coordinates from ORCA-job ./opt_b97-3c_parallel
  N   -5.02936042970607     -1.09359324445181     -0.21507111704837
  C   -3.88238222411741     -0.94915828291020     -0.12296875348785
  C   -2.46284375959185     -0.80438863586135     -0.01196232416157
  C   -1.83012284474758     -2.02638180852909      0.17563586541154
  C   -0.50536259507077     -2.43985647174358      0.22001296340638
  C   0.74266483882594     -1.85980107877054      0.09957674670378
  N   1.77565134243004     -2.76542911032340      0.03420931223574
  C   2.88923849658345     -2.07857128194681     -0.12979896838816
  C   2.66653212677506     -0.67660518176425     -0.12762244170198
  C   3.71054490985701      0.23033687597832     -0.36029883267306
  N   4.65439130670526      0.86258662070653     -0.60362124115476
  C   1.27455858801700     -0.49084002207759      0.02774975152227
  C   0.65093189996258      0.76923280131942      0.17868282734181
  C   1.53756503601149      1.85534470235028      0.47081365009151
  N   2.28855138989242      2.67632198551399      0.79608507062717
  C   -0.68242698816952      1.18029248035810      0.09575026527331
  N   -0.85754482159675      2.53547928240762      0.10382489645740
  C   -2.15032251289184      2.77470334427183     -0.10292549936463
  C   -2.89367970874938      1.59387468485456     -0.22271970928352
  C   -2.00059908852343      0.52746618934692     -0.08994657181672
  H   -2.52361616456143     -2.85256404533545      0.25412836590087
  H   -0.40180195934341     -3.51410283921235      0.30931837689828
  H   3.84684468578447     -2.56061914911300     -0.25461492807075
  H   -2.52002615789619      3.78746069420868     -0.15887984391076
  H   -3.95918661057909      1.51394584402316     -0.35824581930795
