26
Coordinates from ORCA-job ./opt_b97-3c_parallel
  N   -5.29810511074304     -1.89408202013131     -0.60948932828444
  C   -4.51138127070982     -1.06107686600090     -0.41864598326964
  C   -3.57881655629248     -0.04061766582106     -0.19195583818808
  C   -3.85858236996662      1.32841379885677     -0.10423462952221
  C   -2.68023316387571      2.01631662485494      0.18172413839997
  C   -1.60270181336047      1.11651840846499      0.25660802490778
  N   -0.37790242923914      1.58580305273989      0.32100118589430
  C   0.80497574663995      1.04520136763702      0.17144295827729
  C   1.92099061361524      1.94528429228781      0.08494078239674
  C   1.82153734211455      3.33756884966097      0.22526190890145
  N   1.75671100021812      4.49081987902263      0.34155343809784
  C   3.06601071186561      1.23217022372242     -0.22928500355283
  C   2.73875812998428     -0.13612577969425     -0.30233807628790
  C   3.69171382805500     -1.09144325904339     -0.69338051081656
  N   4.53331554227052     -1.79743212212841     -1.07049185460585
  C   1.35835480273004     -0.32259744497036     -0.02044754875981
  C   0.78509937980387     -1.57555167512675      0.25512535913918
  C   1.67341710104061     -2.67237267174956      0.46018552989301
  N   2.30968795778608     -3.61065419511778      0.70754020095979
  C   -0.55190690124678     -2.00838262943262      0.40649299935370
  N   -1.72827720477712     -1.46847003152599      0.17124519971883
  C   -2.18350105688796     -0.25561852840491      0.05985247988696
  H   -4.83515301438400      1.76544228025124     -0.23227647699310
  H   -2.56672776916038      3.08233337281807      0.29078344385228
  H   4.04396443084155      1.64272078314315     -0.41334071322507
  H   -0.62832637522811     -3.05516451039384      0.67939268786030
