26
Coordinates from ORCA-job ./opt_b97-3c_parallel
  N   -3.81530628327536     -1.68081690078711     -0.22143834845708
  C   -2.75033024443689     -1.22887312489949     -0.11515181604869
  C   -1.41460494974798     -0.74172764785839     -0.00343265792798
  C   -0.46719422435789     -1.78709028568040      0.06696137738704
  N   -0.95072327139625     -3.09026286650921      0.15703134104410
  C   0.94093420775786     -1.73390544770811      0.11641134758519
  C   1.93025767566289     -0.78969273248455      0.04689193483944
  C   3.29328951300182     -1.21358069407568      0.06397410941518
  C   4.12823254660568     -0.11651427049013     -0.03451661688544
  C   3.33811181194859      1.04075948311134     -0.10407721318884
  C   1.97868896412055      0.69414282867742     -0.05629299273836
  N   1.07782311911004      1.66111197762769     -0.06200792398209
  C   -0.22679176712734      1.68196171687882     -0.00270831283548
  C   -0.85396106474179      2.96278945876321      0.00562677869772
  C   -2.22006245117941      2.80883386848245      0.06148990391441
  C   -2.51964080874528      1.43405592540349      0.07415721362896
  C   -1.34549461170726      0.67112966614932      0.04183048730430
  H   -1.92356103271038     -3.23896658698323     -0.05337906050817
  H   -0.36047974290967     -3.80226892157312     -0.23599332722606
  H   1.35905896077174     -2.73068125819199      0.22456371108257
  H   3.60136981439025     -2.24615558885841      0.13143252422329
  H   5.20654076102903     -0.14480636270478     -0.05183261274867
  H   3.68078512591982      2.06050000458672     -0.17131297607195
  H   -0.28834322490092      3.87914495691228     -0.02037737615349
  H   -2.95310272626747      3.59980666227842      0.09161748170890
  H   -3.51661630091456      1.02649736293339      0.10940922324127
