29
Coordinates from ORCA-job ./opt_b97-3c_parallel
  N   -4.90337287009678     -1.09490271249848      1.73224214945446
  C   -3.88400345788052     -1.16560223749410      1.17794879865747
  C   -2.64849021883607     -1.34932992346368      0.54660970921250
  C   -2.14399637556183     -2.59474013963248      0.13639242291157
  N   -0.94494972133230     -2.51587790282929     -0.44361793661272
  C   -0.56506357708943     -1.21481308193346     -0.40320511842043
  C   0.79549622448600     -0.96717784264179     -0.61847756580394
  C   1.52365161615351     -2.06862260812914     -1.15316243329989
  N   2.16555949851021     -2.88762944389690     -1.66542050349379
  C   1.57357366980956      0.12715819332361     -0.18566420442929
  C   2.91416161177535      0.09794474467113      0.18641888813903
  C   3.85601925719436     -0.93003457029744      0.25140373087966
  N   4.74187475779974     -1.67187560209804      0.39001379372460
  C   3.19503226289900      1.41421108418338      0.72491678584871
  N   4.34558410321239      1.76599792553786      1.28167610825261
  N   2.16467675463192      2.25510148404550      0.60751337781236
  C   1.16468089224018      1.54665131797605      0.04242574308141
  N   0.12392818596741      2.16986438554223     -0.42557176086792
  C   -1.10980642311818      1.91987450538376     -0.75905376558055
  N   -1.66137657785498      2.73177339881525     -1.67563969472151
  C   -1.98289908491101      0.95435002669921     -0.11008580411067
  C   -3.27035796142026      1.47384260372502      0.15412711176296
  N   -4.29691595382411      2.00163654995084      0.29405994928097
  C   -1.69529846283594     -0.38185913671359      0.11889472664193
  H   -2.63413659660093     -3.54712690806777      0.27100540039408
  H   5.11194343093171      1.11856387473410      1.34547839628647
  H   4.45255245892411      2.69205601856763      1.65667901563700
  H   -2.64799091857590      2.69984891961873     -1.86387905292903
  H   -1.15251446539402      3.55341967442375     -1.95391665170774
