27
Coordinates from ORCA-job ./opt_b97-3c_parallel
  N   -3.09821219322081     -3.19620946341924      0.06738517662476
  C   -2.85781759662142     -2.05888568019718      0.06844397934497
  C   -2.71574646653954     -0.66482770864879      0.13402096889845
  C   -3.77941899742961      0.13975783879979      0.60702708702106
  C   -3.38203026548753      1.45586020731069      0.65333375527054
  C   -2.04329788456241      1.56537832115559      0.21442079024639
  N   -1.58342074328646      2.76540583636638     -0.04632218662975
  C   -0.42807715898414      3.25677815114828     -0.45514615951369
  C   0.87999932965399      2.80326743449924     -0.41757800090265
  C   1.48699878668577      1.59324942319178     -0.09855415666663
  N   2.83138426777106      1.62094569797843      0.06683337901008
  C   3.23255562925591      0.36026444121251      0.27033366706805
  N   4.49983369769046      0.04582927996423      0.53686775591955
  C   2.14533725494746     -0.56533502564060      0.16947439613132
  C   2.33260022051695     -1.92916108213075      0.40855894447961
  N   2.64977281385385     -3.01946767450519      0.66223622882232
  C   0.99151700224766      0.20597217472709     -0.05379459923756
  C   -0.29124938089014     -0.35942350760869     -0.28427215564079
  C   -0.22963146036932     -1.69355618008516     -0.78861211621008
  N   -0.13027046679430     -2.70649303136129     -1.34566013223898
  C   -1.56769011217977      0.15262885504419     -0.06123070197072
  H   -4.74731161859022     -0.25241814450804      0.87441084549194
  H   -3.98732390181082      2.31297501377381      0.89446192509595
  H   -0.51469184776209      4.29598921276856     -0.76045369433485
  H   1.61231276957352      3.58178062518251     -0.59258653914516
  H   5.18465099796314      0.77514042752462      0.61693793196900
  H   4.77637756406019     -0.90647094034500      0.69504702459416
