32
Coordinates from ORCA-job ./opt_b97-3c_parallel
  N   -5.45052063368426     -1.41315129679543     -1.50696400919177
  C   -4.66757284380801     -0.66539820534043     -1.08143179426170
  C   -3.68924847757377      0.18667106691790     -0.56258691645311
  C   -3.83820338083369      1.48993991973420     -0.10088657623951
  N   -2.70141535647135      1.98750692010797      0.42244399394048
  C   -1.75064923503975      1.03872205447827      0.30761549891976
  C   -0.41974937597011      1.43148389149888      0.52242962181389
  C   -0.29056000239000      2.72257706536328      1.11230926788127
  N   -0.14463872619160      3.71618129745781      1.69268470022890
  C   0.77636967473839      0.81677684997731      0.10937229194065
  C   1.94105680700920      1.56536687442686     -0.18501447235262
  C   2.13719522932347      2.94418496529738     -0.31512360418668
  N   2.46531897978220      4.04374969654577     -0.50638361302630
  C   2.97747936443706      0.67347257707126     -0.55388040813305
  N   4.18340407558770      1.01496669626106     -0.98895108315165
  C   2.48569200148222     -0.65523833830031     -0.42406973910458
  C   3.27521836451763     -1.75353136680270     -0.77951733468718
  N   4.01310696019380     -2.57625565708514     -1.14242413221353
  C   1.13794432215871     -0.61237875886745     -0.02487217107150
  C   0.47768282076494     -1.79135976888728      0.41183092285972
  C   1.33242642866123     -2.79266934659654      0.93955707743218
  N   1.92648071010401     -3.64593599249975      1.45992196362785
  C   -0.86947466916920     -2.21272366133212      0.31433646507676
  N   -1.16538223872186     -3.48461791308066      0.67326688230970
  C   -1.97187095173313     -1.50935085197533     -0.23635495255818
  C   -2.33640910781494     -0.19692502035266     -0.24737855487005
  H   -4.73667840117855      2.08622181646769     -0.13394852541333
  H   4.85428452876131      0.31423328319981     -1.25406336541689
  H   4.44133776583521      1.98358024438978     -1.07783286586059
  H   -2.11885006759117     -3.79096700705375      0.71350584960729
  H   -0.46364680295453     -4.10874910357076      1.03217152181169
  H   -2.75169340903674     -2.17614496345348     -0.59043875875966
