24
Coordinates from ORCA-job ./opt_b97-3c_parallel
  N   4.92210932156998      1.22356961634333     -1.21361370442363
  C   4.00187662248141      0.60403619070220     -0.86796990829256
  C   2.89707724150929     -0.15297068612609     -0.46454855309437
  C   2.81269377138271     -1.53833168155954     -0.34026156692624
  N   1.63101605690605     -1.96589034951564      0.15406858937508
  C   0.86529641912320     -0.88232631541559      0.34988231193132
  C   -0.51478927404800     -1.05258700831364      0.50814959751141
  C   -0.94893611709611     -2.40061945085340      0.67454145113536
  N   -1.31852489168930     -3.48166979257137      0.86851779396312
  C   -1.55002855732765     -0.11876531459068      0.29152140492491
  N   -2.76194294756934     -0.57876220310762      0.00219149772503
  C   -3.50940331950430      0.49550730405232     -0.39877953217198
  N   -4.76521334927566      0.28778677062670     -0.78954591513491
  C   -2.80724949694541      1.70908896475370     -0.31194692655488
  C   -1.54673257823711      1.39718632003506      0.17786033908045
  N   -0.72569854895587      2.31515802998948      0.65858142353240
  C   0.54880968034676      2.30721330217049      0.94842412475327
  N   1.54979613979585      1.59931472372316      0.44623938734616
  C   1.67759779473222      0.36330959900951      0.07561210991798
  H   3.58748850220237     -2.24788154761150     -0.58828164206287
  H   -5.13173929684696     -0.64808462017074     -0.77068914045921
  H   -5.34171932517913      1.02794655959277     -1.14275409938050
  H   -3.18270383291334      2.70584734624435     -0.46727110340055
  H   0.87361960383814      3.13028529679374      1.57850729720552
