23
Coordinates from ORCA-job ./opt_b97-3c_parallel
  N   4.52382303173441      0.11967191928790     -0.91654730252841
  C   3.46742956103286      0.44351398577788     -0.55677282751428
  C   2.22267214885833      0.96345183172721     -0.16910330167605
  C   2.03423821116008      2.34060056262119      0.04287491093043
  C   0.69804359530952      2.58241713136996      0.30938937439982
  C   -0.03370075776276      1.38254274803225      0.23596696481364
  N   -1.34384907823561      1.47224940996418      0.31536601276085
  C   -2.31826435425763      0.61978395287741      0.14242348026361
  N   -3.57302060560371      1.13617031753020      0.04429952616958
  C   -4.38927433601066      0.12470182356392     -0.29218712714442
  C   -3.73359727456148     -1.10588113406057     -0.38899695279747
  C   -2.38683569768910     -0.87090797872908     -0.09606158190813
  N   -1.53779401292294     -1.87592150183280      0.01583254923761
  C   -0.25704032656787     -1.98108806694658      0.22347525322970
  C   0.86370051924391     -1.09240130933312      0.13271096079634
  C   2.06651827960934     -1.85434428793786      0.23758375171768
  N   2.96592880337036     -2.57099376454683      0.39117342539198
  C   0.97658319288723      0.28416751326709     -0.01095254489108
  H   2.82072680024028      3.07419946887662     -0.02557911700424
  H   0.23021763715540      3.53609012501858      0.48533664070116
  H   -5.44368651876618      0.30885145008485     -0.43896288752744
  H   -4.15996327782637     -2.07475703982089     -0.59067637846338
  H   0.05052112734568     -3.00315026207067      0.42111745832557
