26
Coordinates from ORCA-job ./opt_b97-3c_parallel
  N   -3.74724392386036     -1.76262703382510     -0.14389955194726
  C   -2.73841682169090     -1.19176115464494     -0.06657998734193
  C   -1.39451590569462     -0.70981805498642      0.00740588114095
  C   -0.43368220760897     -1.74674067536952      0.06295665931221
  N   -0.91199966081072     -3.04414893305913      0.15266119362350
  C   0.97686666269455     -1.68967490006577      0.08799259820304
  C   1.98675474347719     -0.76072031893582      0.03362093926929
  C   3.33757081158971     -1.21602526167237      0.03713199292264
  C   4.19413253775524     -0.13259284469691     -0.03118999967655
  C   3.42796211322829      1.04013767060490     -0.07145518504793
  C   2.06243631358876      0.71560262377166     -0.03206603541835
  C   1.09932383649013      1.70550133639725     -0.02279067585470
  C   -0.28270310752536      1.72163750294668      0.02080832313268
  C   -0.98665923567007      2.94861520747026      0.02896051813359
  C   -2.33556195237646      2.64070475894272      0.04552931534633
  N   -2.55076073767459      1.30886382239175      0.04378111292704
  C   -1.34005917369360      0.69977506586109      0.03555652174011
  H   -0.31132096890536     -3.77136463217652     -0.19103737052345
  H   -1.88726097442295     -3.19971331799155     -0.04104371438144
  H   1.39141289522132     -2.69071311222699      0.16487823038905
  H   3.62429059928808     -2.25547335830502      0.07979185282894
  H   5.27182803237913     -0.17978945489277     -0.04814331600341
  H   3.81115363552988      2.04799112525674     -0.11665365601279
  H   1.52774480758502      2.70315972116730     -0.05499476966352
  H   -0.53305239825453      3.92718050205888      0.02115086164644
  H   -3.17078623643889      3.32469796047981      0.05922705525545
