28
Coordinates from ORCA-job ./opt_b97-3c_parallel
  N   3.90852735531127     -3.19144308700871      0.01710466651026
  C   3.05301728236507     -2.40808035387457      0.02042420187209
  C   1.93191550640719     -1.52522457419620      0.03221486821764
  C   0.70477450242142     -2.22727351753337      0.12204913439957
  N   -0.56871026061677     -1.92939787893314      0.08669757399128
  C   -1.27555232335339     -0.81739553268935      0.03116586302316
  C   -2.67282201694480     -0.91613129778921     -0.04510225291501
  C   -3.43063215867941     -2.08961337027049     -0.09430964706402
  N   -4.14697744409827     -3.00468407436266     -0.13831249114533
  C   -3.25760955160776      0.38669070277907     -0.03060063621917
  N   -4.56156713464080      0.63897611341681     -0.08643670526006
  C   -2.22253795077804      1.33649645819726      0.05470191199663
  C   -2.43258627320998      2.71659656526340      0.07941491855325
  N   -2.68768516061668      3.85163521181838      0.09659347681069
  C   -0.96546377234362      0.66962642199272      0.07279617340380
  N   0.12205447240272      1.38137158259199      0.08713627511615
  C   1.41633530835517      1.09371096831614      0.04064768881413
  C   2.34135508251277      2.12477485687619      0.01744703197873
  C   3.61568254550040      1.52428439403120     -0.07139550154006
  N   4.80358789130838      2.12512882110397     -0.12963077499039
  N   3.55003209278323      0.16954285915265     -0.10028868685574
  C   2.25573848905597     -0.16604909200728     -0.02808528832307
  H   0.86386567391868     -3.29774943111815      0.21748823735287
  H   -4.90434979346917      1.58349920820838     -0.06152474873330
  H   -5.22950247287022     -0.10989040881415     -0.14498717567887
  H   2.09390927690944      3.17204864790194      0.04811513663195
  H   5.63275052024741      1.55988382802942     -0.18932193953066
  H   4.89664277052645      3.12265614811868     -0.09942707141829
