27
Coordinates from ORCA-job ./opt_b97-3c_parallel
  N   5.53793432265339      0.40129978384188      0.56177207439561
  C   4.50135069884530     -0.09524347001302      0.38911151376264
  C   3.24581491181566     -0.67926671542059      0.18071423480663
  C   2.96771320758711     -2.04415695018293     -0.01147169098772
  N   1.67244576989900     -2.25529995362152     -0.22650137252743
  C   1.03405692899314     -1.05210916640927     -0.15783515822380
  C   -0.37071593654507     -1.10937207264257     -0.23387307261953
  C   -0.82411525322165     -2.41128416045966     -0.62310976584835
  N   -1.21104946590758     -3.41477418054633     -1.05565437861785
  C   -1.38003870054994     -0.15913755269351     -0.00332374090378
  C   -2.73792498667075     -0.53929277235315      0.20584867441413
  C   -3.29132830426812     -1.80296325951901      0.47005799747496
  N   -3.86424673482936     -2.77070068765135      0.76130487848714
  C   -3.54312296115610      0.61557017269865      0.27827262636502
  C   -2.74668750960041      1.72151426839013      0.09718217528175
  C   -1.39169752864996      1.32665164404511     -0.03477006690480
  C   -0.41053796778617      2.31792643970984     -0.16848148465248
  C   -0.92617366844171      3.64665373264705     -0.32692710018187
  N   -1.29432884823877      4.73676653310363     -0.47041540073097
  C   0.99315302130233      2.34670402818386     -0.10621935837094
  C   1.97298285232472      1.39722825518465      0.06496873132725
  C   2.00630506301859      0.00851198301213      0.07769105163217
  H   3.67650804259051     -2.85703689185328      0.00172460797855
  H   -4.60403500561029      0.60698737618133      0.46416547196815
  H   -3.08885730441294      2.74196023311870      0.09240879237373
  H   1.38844287275943      3.35164276058092     -0.16152424811208
  H   2.95787588579961      1.83848954776837      0.17205043131389
