26
Coordinates from ORCA-job ./opt_b97-3c_parallel
  N   4.29182751418571      0.34395689654319     -1.39101261924323
  C   3.31054345698551      0.66844613093934     -0.85781127262803
  C   2.13887716529555      1.15976396411938     -0.26685937384226
  C   1.99272988835147      2.52121641879620      0.11591169231786
  C   0.72533813153736      2.72150260272887      0.59953407184937
  C   -0.02805146313436      1.52065718508510      0.47277676452722
  N   -1.32795065742124      1.59973478852213      0.61716425839452
  C   -2.29578164956769      0.78317321363487      0.24696852024022
  C   -3.59964839974616      1.25599541473613      0.09921577701911
  C   -4.37717641566593      0.29437560772952     -0.58224812248012
  C   -3.61327063101057     -0.82485089142240     -0.84500513989242
  C   -2.30910420850067     -0.62977493509783     -0.30425584672516
  N   -1.48812343587293     -1.62525432531600     -0.17759567214470
  C   -0.26578378711565     -1.78815088113086      0.31551183775509
  N   -0.07812833844780     -3.00123739179783      0.89688458350112
  C   0.86906656289597     -0.93010922275831      0.14372394189451
  C   2.09259336931544     -1.64645070183006      0.19856462447156
  N   3.03051120710180     -2.32107042923934      0.32835375219832
  C   0.93571088619359      0.46313222745727      0.00019395423723
  H   2.76665519646950      3.26240527473154      0.00092514984219
  H   0.28279902846489      3.65261846528513      0.91024767404301
  H   -3.91216835930223      2.24343662065300      0.39677703430248
  H   -5.41726094445163      0.41551037505460     -0.84352032111069
  H   -3.94269603840565     -1.75306969333886     -1.28191441400057
  H   0.85262790744294     -3.33432264202358      1.08088012349688
  H   -0.78505840029674     -3.69325493696079      0.72030664487599
