29
Coordinates from ORCA-job ./opt_b97-3c_parallel
  N   -2.35629979903456     -2.78760735961893      1.07131094710898
  C   -1.56728645211358     -2.04386642162103      0.65171503144907
  C   -0.48590963481845     -1.22517835922947      0.22581823778688
  C   0.69978005133291     -1.96630365949452      0.01457461336770
  N   0.61011288579957     -3.33963981019679      0.07839620665073
  C   1.99304506613127     -1.52872152226880     -0.35932936810721
  C   2.70152585488935     -0.36569310762756     -0.27787683148319
  C   4.10038354374463     -0.36633169682611     -0.53767235953781
  C   4.63380064920347      0.86165713116637     -0.18767988357190
  C   3.60658518624684      1.70341733160952      0.26471612983200
  C   2.38144121530291      1.02465390857266      0.20497267636400
  N   1.26463441595571      1.68984595970746      0.41247977596603
  C   -0.00924079182717      1.40009865861054      0.26873182980716
  C   -0.92514949399925      2.47580133741669      0.30563314344057
  C   -2.20339967678495      2.00972273481699      0.05552998341435
  N   -3.34979749949267      2.71062287738058     -0.04150322531596
  C   -2.13952682564963      0.57741650492341     -0.07430357567855
  C   -3.28750626329233     -0.14022274767855     -0.42276740241118
  N   -4.30693355446164     -0.59040363307488     -0.76094531072387
  C   -0.80989101930872      0.14501128474428      0.06775982896733
  H   -0.23315334296666     -3.75198460451648      0.44070540957699
  H   1.44697489509051     -3.84594470606443      0.30321785357042
  H   2.60035255666257     -2.35621874941096     -0.71417974928291
  H   4.65134943825023     -1.22682250718938     -0.88494452461835
  H   5.67688370474133      1.13112172293644     -0.25557423950625
  H   3.69440930950250      2.73623197833257      0.55866306432008
  H   -0.61926931711104      3.49791467835690      0.45088810817996
  H   -3.31675188661418      3.70852017813420     -0.13506987012402
  H   -4.17762526295639      2.25291645931669     -0.38323438554402
