30
Coordinates from ORCA-job ./opt_b97-3c_parallel
  N   -5.59476685368655      0.99792038379901     -1.17951891081926
  C   -4.66039258139222      0.36905952881645     -0.89249755904442
  C   -3.53544101098803     -0.38537634440371     -0.54532282819465
  C   -3.43691750703142     -1.77737579186594     -0.40759369846247
  N   -2.24481236875735     -2.17823580524583      0.05163844961222
  C   -1.47100249385577     -1.07489240626429      0.18522164987734
  C   -0.10737849700445     -1.27198207539648      0.41530795254778
  C   0.19870557146116     -2.60245740350586      0.83304227916441
  N   0.46051896084257     -3.63963376211225      1.28049407212719
  C   0.99934819979929     -0.42224473228703      0.18357011787083
  C   2.30518393863942     -0.90955315873029      0.00074348310551
  C   2.82422981372808     -2.20888611307453     -0.04831676945878
  N   3.45278068505322     -3.18166957370544     -0.15850995809465
  C   3.19028641852344      0.17978263518648     -0.30105018660248
  N   4.49034316172295      0.04795592053121     -0.55224458140929
  C   2.44167988126439      1.35979574656907     -0.28454639458486
  C   2.97545640088766      2.63352833196902     -0.48071783804760
  N   3.44284184956473      3.68725339419698     -0.64483423335879
  C   1.07732135968265      1.05110026052498      0.02625996551479
  C   0.21183490778529      2.08231254059580      0.27062466424789
  C   -1.17182562997128      2.17942253342929      0.57514650442693
  N   -1.56338922508601      3.30803589099568      1.21289148779951
  N   -2.16781158099038      1.41130195162125      0.18309486463853
  C   -2.29348245675405      0.14424781447467     -0.10054464114227
  H   -4.21237450254223     -2.49644941327725     -0.62422403756319
  H   5.05401898563900      0.84362635631008     -0.79260316044062
  H   4.92285071656809     -0.86010335437804     -0.55039516706596
  H   0.68504740387008      3.05655871514824      0.20455462842347
  H   -0.90714596399307      4.02124185812659      1.47141680784805
  H   -2.54516711568279      3.52267058724752      1.23949987108459
