24
Coordinates from ORCA-job ./opt_b97-3c_parallel
  N   3.58045623757679      2.30003164162820      0.77231414474474
  C   2.58972564931548      1.78589779852223      0.45693194574534
  C   1.29142106450988      1.26729771890117      0.15318756636381
  C   0.36420666759282      2.31090082647727      0.07895742919770
  C   -0.99975218331919      2.40747115805866     -0.13428991885418
  C   -2.05381186019300      1.51393631149795     -0.17765992814713
  N   -3.30165437540213      2.03703745243209     -0.33616459008720
  C   -4.11956389710373      0.98975434539393     -0.21505718675178
  N   -3.52991582863659     -0.20217728692029      0.02122588128450
  C   -2.21300284459246      0.06840289208197      0.04130253575439
  C   -1.31715323088196     -1.01303978621925      0.17278638161217
  C   -1.96544928383450     -2.27238281156606      0.37583204187584
  N   -2.51376378978022     -3.27292642242337      0.57874458469064
  C   0.07627674322505     -1.09704277499717      0.06424052057885
  N   0.56467076207420     -2.36793409627182      0.01643988525157
  C   1.87421666892738     -2.29423630666052     -0.15207852112403
  C   2.33789734543148     -0.96047463405272     -0.16427175323255
  C   3.68324726013860     -0.63704943187393     -0.39333195101622
  N   4.81081122675896     -0.48705486426524     -0.62905836049837
  C   1.20023589022911     -0.13043533438224     -0.01875928162971
  H   0.83138404475907      3.28017435374556      0.18858575614490
  H   -1.34903211953631      3.42639109503466     -0.24931241314371
  H   -5.19154895848951      1.08232107777237     -0.29735177821699
  H   2.48182046263073     -3.17752520251346     -0.27468473914253
