23
Coordinates from ORCA-job ./opt_b97-3c_parallel
  N   4.70756912554896      1.14163758789081     -0.01012391602741
  C   3.77015448538447      0.45342286825295     -0.00747783268703
  C   2.62857119593308     -0.36056166940654     -0.00417577913013
  C   2.63316103097449     -1.76474518227815     -0.00138126770478
  C   1.32170277975888     -2.20976739146600      0.00147429442182
  C   0.43438503161424     -1.11127489350160      0.00064185016559
  N   -0.85895211554403     -1.37135238606149      0.00317804421690
  C   -1.94212458294216     -0.63948204794120      0.00347437211534
  N   -3.12725522579108     -1.33329764996286      0.00678344375385
  C   -4.10751533216029     -0.43289111439655      0.00662521882143
  C   -3.63252908140522      0.88859674054797      0.00321242384176
  C   -2.24005310275952      0.82553564694871      0.00104750687818
  C   -1.46997680605888      1.98869396172503     -0.00261310703476
  C   -0.11917416275475      2.26377707856479     -0.00537515894330
  C   1.02911198545761      1.47116066666275     -0.00551812659946
  C   1.28234470482196      0.11726156790733     -0.00310866513892
  H   3.52117971858102     -2.37537947492039     -0.00148891593671
  H   0.98076372090408     -3.23143495990070      0.00403774267772
  H   -5.14132598152873     -0.74764090872598      0.00896146837498
  H   -4.22301564495468      1.79238206375797      0.00237264333073
  H   -2.08133104117417      2.88563247977682     -0.00347591243127
  H   0.10281118961782      3.32368253070201     -0.00794746790437
  H   1.93753055097692      2.06510666112434     -0.00814994226017
