25
Coordinates from ORCA-job ./opt_b97-3c_parallel
  N   4.07859043164049     -2.41306701337847     -0.66093616566498
  C   3.41837501004246     -1.48967575777319     -0.40711851585555
  C   2.60512531758820     -0.39151056521903     -0.11041665363809
  C   3.01590974880248      0.87012565195825      0.35297906479255
  N   1.99051424056725      1.68808104589813      0.58368754533254
  C   0.85063659623593      1.00932149187639      0.27293937453656
  C   -0.31735905120642      1.76597800422797      0.19891264798592
  C   -0.17068530201948      3.15260826975556      0.46988939834696
  N   -0.18095503846393      4.30118371040054      0.64392617814890
  C   -1.65177242172872      1.38408212699299     -0.18581500034480
  N   -2.41777122520891      2.32250834484140     -0.78485687497988
  N   -2.29111592091583      0.27186639986212      0.10738424366136
  C   -2.05386050079524     -0.99443565376017      0.25162010301325
  N   -3.08384489205002     -1.79993272495920      0.64869941310797
  C   -2.65885472660294     -3.05470750152633      0.48004270965999
  C   -1.35112434206602     -3.14643031895682     -0.03125030066594
  C   -0.87725991577865     -1.84118848780110     -0.13560168970142
  C   0.45234913502191     -1.52504413018698     -0.34832168934583
  C   1.18211540355573     -0.37018746233152     -0.13623532892393
  H   4.03324965169898      1.18872449564502      0.52179803376536
  H   -2.08700463906449      3.26576617562775     -0.89052795932659
  H   -3.41130564139509      2.16861468027218     -0.79043334934802
  H   -3.30746241810663     -3.88346134084283      0.72645497613888
  H   -0.79331329010670     -4.04609150536089     -0.23627172625291
  H   1.06710738295651     -2.38236369486239     -0.60518782364249
