25
Coordinates from ORCA-job ./opt_b97-3c_parallel
  N   5.08214505328568     -2.06081592331702      0.25724165560859
  C   4.38171033852564     -1.13711309473095      0.17253707484748
  C   3.51773709864615     -0.03747680002108      0.07028139345784
  C   3.91329271161693      1.30658262105506     -0.01457276110885
  C   2.77770625445793      2.09927164775611     -0.11118178259194
  C   1.62270769701476      1.29076139908648     -0.08762755418571
  N   0.44910659146534      1.87980759718133     -0.12415719400616
  C   -0.80107587593769      1.50423588982465     -0.06724962624403
  N   -1.70315068360557      2.54467146015686     -0.05405297245779
  C   -2.90800439757304      2.02714787039919      0.04669594309306
  C   -2.89534734071699      0.60522647416526      0.07450223823862
  C   -4.07766193615846     -0.13403127024178      0.22144333627260
  N   -5.12168265906012     -0.62262990819400      0.36941437706323
  C   -1.54581332158895      0.20856145180865     -0.00277080234360
  C   -1.12447786164252     -1.13824021731671     -0.08189599366785
  C   -2.15117027195615     -2.12486667971767     -0.22495856441267
  N   -2.89845404924834     -2.99854439749145     -0.37769042526114
  C   0.12591284338423     -1.75409882885441     -0.05292315074453
  C   1.45175814772274     -1.33029536856905      0.03073422917911
  C   2.09321999244010     -0.11761701462039      0.02293070075140
  H   4.93566613955262      1.64690728259436     -0.00360977104887
  H   2.73874519539391      3.17323996135339     -0.18222681723544
  H   -3.79332086623277      2.64231387021769      0.10463472030548
  H   0.05019177537267     -2.83179920300885     -0.09899600882217
  H   2.13592586544192     -2.17014606451568      0.09124599301335
