23
Coordinates from ORCA-job ./opt_b97-3c_parallel
  N   -4.38731071323694      1.65218197535945      0.00568717297078
  C   -3.28500168245022      1.29233497385020      0.00376192409752
  C   -1.88629001647540      0.99035514058952      0.00194838005430
  C   -1.08948288198673      2.12800989318746      0.00395551123038
  C   0.27958998166840      2.37051260040978      0.00301310426949
  C   1.44134283300237      1.62356732549240      0.00094804876818
  N   2.59294020031303      2.35359599627289      0.00118669898744
  C   3.60996143898520      1.48341891391299      0.00016404621092
  C   3.18203016925513      0.15393588806560     -0.00066781574810
  C   1.78262877816799      0.17657141491968     -0.00031622088809
  C   1.00750560236988     -0.99286393246413     -0.00188572429258
  C   1.77408238771414     -2.20419660252782     -0.00261407165390
  N   2.48432353899235     -3.12022976098601     -0.00265701451095
  C   -0.37544161537237     -1.21738727778745     -0.00309628990641
  N   -0.77650793258572     -2.51821391486013     -0.00610788959322
  C   -2.10731387144515     -2.46675649972396     -0.00684383048294
  N   -2.64701994034438     -1.23124596940385     -0.00420961076537
  C   -1.59471583328672     -0.39191927693443     -0.00188039487766
  H   -1.66942694402407      3.04087484629065      0.00649553215931
  H   0.52204129961492      3.42616861458592      0.00434248837762
  H   4.63104629754077      1.83478446546041      0.00006409176163
  H   3.80340091885702     -0.72487902351806     -0.00156878568779
  H   -2.71903248147351     -3.35545813179114     -0.00937114788058
