26
Coordinates from ORCA-job ./opt_b97-3c_parallel
  N   2.80049522389284     -4.01410260166458      0.02174775764490
  C   2.19350480300157     -3.02593204538628      0.01668685529835
  C   1.32988473094350     -1.88841068398373      0.01061988622492
  C   -0.03376378217136     -2.26734666028120      0.01079203947965
  N   -1.18876778565788     -1.64382892180305      0.00623555676626
  C   -1.57442679714904     -0.38798371524110      0.00006593379594
  C   -2.95404277769271     -0.11310645189449     -0.00346421828669
  C   -3.99544975030216     -1.04547842404041     -0.00126640019211
  N   -4.93073587906295     -1.73629204099335      0.00016541044495
  C   -3.16810211495021      1.29917673457904     -0.00964103483121
  N   -4.36831461225364      1.87971317614129     -0.01404594977873
  C   -1.91510582779844      1.93189902520089     -0.01009775718087
  C   -0.89750025925832      0.97666000247631     -0.00450783214657
  N   0.35103036809005      1.38790402146070     -0.00447524597293
  C   1.50276446195273      0.76243105215849     -0.00049806087933
  C   2.70741955198734      1.52292041950526     -0.00222529021323
  C   2.79024264890953      2.91993750368959     -0.00795836728511
  N   2.87391146021260      4.07866788077691     -0.01293449749117
  C   3.76171400387640      0.60356313398866      0.00264919012326
  N   3.33665558378772     -0.66806890216297      0.00736136176494
  C   1.98472670375917     -0.65376840474856      0.00584106212488
  H   -0.15615910590989     -3.34572262394441      0.01574182781507
  H   -4.46584784456570      2.87821673798085     -0.01832996074410
  H   -5.20820284664405      1.32681847997401     -0.01329280581096
  H   -1.73033226057760      2.99358014067152     -0.01420808248332
  H   4.81621064038163      0.83306305684006      0.00283908581369
