23
Coordinates from ORCA-job ./opt_b97-3c_parallel
  N   -4.60041387144014     -1.93058194167908     -0.00392381564502
  C   -3.84125525268708     -1.05149300618283     -0.00362759415444
  C   -2.96032046409359      0.03947614012720     -0.00279795470450
  C   -3.34540183251029      1.40108913317010     -0.00314912342939
  C   -2.21344715155431      2.18546796078128     -0.00208199953269
  C   -1.05171427247872      1.36863582580907     -0.00097350410250
  N   0.11773532740274      1.94641394187585      0.00035480950814
  C   1.35164504286437      1.45724221344463      0.00175092129376
  C   2.43404405643792      2.34680200208194      0.00314956571552
  C   3.59946645185848      1.57713509666432      0.00449386994743
  N   3.34285958029470      0.26104582099715      0.00401938208789
  C   1.99161460156558      0.10832431411289      0.00236028640370
  C   1.50813726368201     -1.19753163617945      0.00140257823397
  C   2.51134141865020     -2.21526335589800      0.00219810394682
  N   3.23258588513033     -3.12333448582526      0.00258429646927
  C   0.20140272612421     -1.75280789317887     -0.00019484061549
  N   -1.01452211477021     -1.26700476396491     -0.00121816299926
  C   -1.54784260637549     -0.06564596371540     -0.00152073940542
  H   -4.36651204171580      1.74583002818390     -0.00409659090227
  H   -2.16895785159600      3.26186070745214     -0.00200573320815
  H   2.33887121468472      3.41961650608734      0.00315785049648
  H   4.62002180613942      1.92978876798647      0.00579929200036
  H   0.21328934838682     -2.83775343805098     -0.00055582760403
