30
Coordinates from ORCA-job ./opt_b97-3c_parallel
  N   0.56169281721164      4.39492419974206     -0.93679581083836
  C   0.56933490821711      3.28562046334302     -0.59094703348052
  C   0.77712512804366      1.92768692526601     -0.21978020585165
  C   2.12998215519539      1.59564014476833     -0.02981575362547
  N   3.05885332398261      2.58621080175322     -0.19656209085997
  C   2.69928908104163      0.38760024924907      0.45602548173039
  C   2.37018583557144     -0.93431683732217      0.42900446718830
  C   3.37829858716873     -1.89812008437834      0.74821536170927
  C   2.96040596974000     -3.13857194998334      0.32484081328232
  C   1.66679210975778     -3.03201335215322     -0.22404161456077
  C   1.22637801549934     -1.70886491514417     -0.13240594294038
  C   -0.11969192432112     -1.35520565914618     -0.31977484471262
  C   -0.91249460676966     -2.40983219678112     -0.86570562480835
  N   -1.49724407293157     -3.26624402274130     -1.38585105560053
  C   -0.83108962361095     -0.18662121407910     -0.00222036640253
  C   -2.24030735511989     -0.15350475353489      0.17113753782571
  C   -3.17452825243599     -1.17365716481045      0.35397845195726
  N   -4.05062489227929     -1.91351090495923      0.55672529853820
  C   -2.58979442251793      1.21256991696981      0.30408211807389
  N   -3.80561829521263      1.70675899335232      0.54350590718194
  N   -1.51528575297104      2.01624591406303      0.18225668663974
  C   -0.43295405310826      1.23220958073372      0.03935307556027
  H   4.01692544540708      2.32722948329195     -0.33940886641549
  H   2.77906623657372      3.46684999523717     -0.59460613341261
  H   3.69623066727055      0.55608702893395      0.85089612826852
  H   4.34583169441169     -1.64667591506935      1.15291239772914
  H   3.52557591202085     -4.05487387096568      0.39736802694203
  H   1.07085344334360     -3.85664845436235     -0.57665178701653
  H   -3.92467824144292      2.69810483680156      0.64264436099092
  H   -4.59851343243548      1.10095029812551      0.65203103330792
