25
Coordinates from ORCA-job ./opt_b97-3c_parallel
  N   5.03217522878922     -1.68196992988961      1.01764541013374
  C   4.25034198226150     -0.87815693472829      0.71090990467923
  C   3.32497849343151      0.10767481992273      0.34976888905311
  C   3.58683863716854      1.49457166498750      0.26122738809015
  C   2.46746872778688      2.16299013136111     -0.19768664000333
  C   1.40550899683424      1.24754923649348     -0.36347313318949
  N   0.18034299177288      1.68286215490638     -0.50351975914059
  C   -0.98461516318369      1.06159996032619     -0.37954344465941
  C   -2.14132448949033      1.81441540183873     -0.21899744815217
  C   -3.21453093909086      0.97250896212040      0.14467642099822
  N   -4.46480259621633      1.35196034395884      0.42420342233306
  C   -2.75129670854017     -0.36868603672460      0.17570049921458
  C   -3.58186863415274     -1.46367343997194      0.41992236089178
  N   -4.34645405210644     -2.31293151297746      0.63917000738693
  C   -1.38825423391267     -0.39688510790774     -0.20409642692648
  N   -0.80247764653069     -1.52330685227012     -0.50417707247547
  C   0.44701890056587     -1.84971396344669     -0.78675427467643
  N   1.60542991926812     -1.34248655329099     -0.41348634093733
  C   2.00533946147595     -0.14019437351352     -0.10126564363655
  H   4.53220583151139      1.94564031450334      0.51801926139949
  H   2.35847429617618      3.22667346165384     -0.32569930221455
  H   -2.17083587211558      2.88960819278580     -0.28570177775596
  H   -4.75929582616483      2.30328583032915      0.30751660899470
  H   -5.16678981739265      0.66951246308295      0.65253598339081
  H   0.53730472735481     -2.80485869815067     -1.29521379969972
