27
Coordinates from ORCA-job ./opt_b97-3c_parallel
  N   -2.99676638989102      2.97407086408413     -0.66462686671583
  C   -2.09329518879668      2.29750316158868     -0.39603014822145
  C   -0.88593389642578      1.57188661866397     -0.14194318094603
  C   0.19048254149968      2.47722798642564     -0.06512842570832
  C   1.55021794100843      2.39891230081262      0.12144718276877
  C   2.47350378659851      1.36365974269472      0.17587789163559
  N   3.77871473700358      1.68957141214312      0.32617504773538
  C   4.42886242261839      0.51569912972966      0.23430247757323
  N   3.67254575361240     -0.56804905754340      0.02675943658744
  C   2.40087397662573     -0.09217162213035     -0.00703816604531
  C   1.36845219371770     -1.02588773783388     -0.14899802599214
  C   1.86795741500590     -2.35890156430279     -0.32144968594045
  N   2.17278564637479     -3.46623904612409     -0.48055043728924
  C   -0.04173060724084     -0.95086820665646     -0.08526881469550
  C   -0.78222997379986     -2.13388198469452     -0.07129759514204
  C   -2.14413328938263     -1.84687677474707      0.06566022969712
  N   -3.14823738201671     -2.71995555434929      0.16629094863822
  C   -2.29483415896845     -0.43088162602488      0.09334788880803
  C   -3.57228801005109      0.09939470569616      0.30665349721453
  N   -4.69384952453095      0.32095498415542      0.52393051786902
  C   -1.02291065603522      0.17965053537742     -0.01433306991471
  H   -0.14875077703356      3.50092162963396     -0.14905716233213
  H   2.03605295613662      3.36237714646212      0.21357512779296
  H   5.50292700474806      0.45080876357156      0.32178185306415
  H   -0.36588451370411     -3.12411445783385     -0.12833672072846
  H   -4.09378609841963     -2.40089550731709      0.29325282070839
  H   -2.98001237035242     -3.70849139898432      0.17492734857766
