32
Coordinates from ORCA-job ./opt_b97-3c_parallel
  N   5.46594137141618     -0.06898538588951      1.29706999832860
  C   4.43659874208116     -0.45459508140533      0.91961202272256
  C   3.19941413167973     -0.98211001646092      0.52745931892083
  C   2.85458324160591     -2.35381026500067      0.58968628540722
  N   1.61069340206645     -2.58145354089923      0.20133469609185
  C   1.03427481851522     -1.36773302590292     -0.05045777854242
  C   -0.32797757266573     -1.40969773125600     -0.36788404481739
  C   -0.75628407473605     -2.70460165639118     -0.78918219827283
  N   -1.11432577203985     -3.70968806258904     -1.24346005223415
  C   -1.34003651996372     -0.44449303083862     -0.18812998295983
  C   -2.70433402166116     -0.77239928529871     -0.08284581215817
  C   -3.39776534425190     -1.98302234149482     -0.19833198930590
  N   -4.16924466037640     -2.85326556235659     -0.23171116243493
  C   -3.44794044869591      0.38746417818777      0.32338073286976
  N   -4.76121548794985      0.40432750573669      0.53888213852561
  C   -2.55131755591545      1.45247640850342      0.43772328459910
  C   -2.92213774499278      2.76386680677412      0.73411828853916
  N   -3.25076769700898      3.85372222576249      0.97902638428289
  C   -1.23313228179254      1.00203766340680      0.08614629258973
  C   -0.26018139570537      1.94375797409807     -0.10750835215530
  C   1.07347353724010      1.98711880696538     -0.58334488505443
  N   1.41730355265724      3.17918162714368     -1.12810276423248
  C   2.08931338876655      1.01382307920444     -0.42932773802458
  C   3.36179388367637      1.46854732822598     -0.86049836232869
  N   4.33123089052450      1.92574732563123     -1.30993377950002
  C   2.04583479661597     -0.29762601995358      0.09155512787169
  H   3.49247658160501     -3.15278824281308      0.93579650352692
  H   -5.30981059713586     -0.43113573898676      0.42657709659427
  H   -5.22359053395356      1.23872777052208      0.85268239422922
  H   -0.63830017890676      2.94697014305698      0.06128676386705
  H   2.36747623672908      3.39246992833100     -1.37766428426005
  H   0.73157997497733      3.89849014319017     -1.25618839428744
