24
Coordinates from ORCA-job ./opt_b97-3c_parallel
  N   -4.59704658155402     -1.59262238432229     -1.43847405718716
  C   -3.89611774269415     -0.77134625201087     -1.00824286311283
  C   -3.04638246935909      0.21382090453375     -0.49297410083131
  C   -3.38480329645943      1.51243550674455     -0.13869451972633
  C   -2.27236943481981      2.17016301814831      0.41909252420032
  C   -1.16829024670374      1.32593750160277      0.42926477345002
  N   0.04098686300665      1.81100925895003      0.65801127402307
  C   1.22046590002941      1.31418559213821      0.41092810333447
  N   2.28406133455311      2.16876218950080      0.40002523922146
  C   3.31224608733824      1.50906782500100     -0.12508085418379
  C   3.02324528751840      0.16577944213371     -0.46184555342046
  C   3.91244097714538     -0.79773534178067     -0.94720288712161
  N   4.65800004674886     -1.59376210331272     -1.34949835293049
  C   1.69099323997791     -0.05856731284009     -0.05862203022894
  N   1.18524016559562     -1.25877581453115      0.06242206966419
  C   -0.01906442659031     -1.67748760253312      0.40370607871264
  N   -0.08324974218132     -2.82347562205189      1.10622741110303
  N   -1.21888962071958     -1.22117639683027     -0.01763606532439
  C   -1.68158939064788     -0.02375317351457     -0.08226416358836
  H   -4.36224439034568      1.94668125160783     -0.27593861970562
  H   -2.23004631835168      3.20414475084363      0.71766313989231
  H   4.26955091399284      1.99197809393002     -0.25684039385289
  H   -0.95551632555824     -3.32235516811772      1.13221268698104
  H   0.76922054647685     -3.33471217578879      1.25658410093160
