30
Coordinates from ORCA-job ./opt_b97-3c_parallel
  N   -2.45019333766933     -3.74604038681894     -0.64984462397549
  C   -1.76473644542768     -2.83099517354699     -0.44935452602492
  C   -0.84918012678942     -1.75217889781763     -0.28174310795078
  C   0.47740338524432     -2.19443450886484     -0.46791586072068
  N   1.66895522006076     -1.68916171683740     -0.25077951812575
  C   2.16236597936255     -0.48975674764029     -0.11522561753547
  C   3.52954263434278     -0.30286735914785      0.17611443003029
  C   4.48521101780750     -1.28823013216287      0.42762917710471
  N   5.34788507634171     -2.03808787964472      0.64556031631797
  C   3.84130847894608      1.08229454213733      0.05886195274123
  N   5.05519524207619      1.59887362930168      0.24665622163391
  C   2.66806703940173      1.78797257051277     -0.27960553435259
  C   1.59723564947023      0.90570556153302     -0.34185732902632
  N   0.37136260108153      1.37755077310319     -0.44298698077683
  C   -0.82448059222101      0.88013761809279     -0.26558840762308
  C   -1.91071699168941      1.79695473961276     -0.20643527301630
  C   -1.83399681075877      3.18237590038123     -0.36460025486735
  N   -1.85494406411014      4.33947350846580     -0.48167769488342
  C   -3.07868730467930      1.10979989883461      0.16102747722118
  N   -4.27816099611067      1.63580457641139      0.38490482441065
  C   -2.76098302771183     -0.28247009268738      0.28235913658520
  C   -3.75073296966989     -1.17617942325078      0.70598712699798
  N   -4.67094357270169     -1.76459374849076      1.10699967759552
  C   -1.40596775502478     -0.48631406591982     -0.02224967305849
  H   0.52717617631149     -3.23485034675956     -0.77447965073904
  H   5.23453564706487      2.57587437439032      0.10632340756505
  H   5.83356323562081      1.00808706679724      0.48449671652508
  H   2.57485760284313      2.85487185967850     -0.39796336479509
  H   -4.43344920551517      2.62393079702822      0.28823584916499
  H   -5.04843732389278      1.05598337008303      0.67191791078073
