28
Coordinates from ORCA-job ./opt_b97-3c_parallel
  N   3.27003805517993      2.75066330286863      0.39085686527220
  C   2.70721193461828      1.75082003379629      0.19247958149595
  C   2.29694990693832      0.42599484056678      0.00697587411700
  C   3.30030884479647     -0.58872579459170      0.01990352098024
  N   4.61635566807359     -0.34204344891076      0.08994121754899
  C   2.66681372670706     -1.82903414541580     -0.06242137007381
  C   1.27942773359276     -1.65500184602780     -0.08889995870394
  C   0.48173232640280     -2.79645767291859     -0.13301529976270
  C   -0.86680350323731     -3.10011376824004     -0.06895664663874
  C   -2.03361635076485     -2.36974643455713      0.04425966041492
  C   -2.33042519200540     -1.01428286506541      0.06469447494118
  N   -3.63306099602084     -0.66279627606625      0.16391261030422
  C   -3.62333320518484      0.67994503002182      0.07674756398641
  N   -4.74285250495060      1.41349853751965      0.11804975568585
  N   -2.40897059018426      1.25635767709008     -0.08079053797207
  C   -1.54140725451999      0.23215469549224     -0.08014604542469
  C   -0.16460679614275      0.55923261839007     -0.19384549265140
  C   0.00990164055439      1.95141494251840     -0.47213790538663
  N   0.16067808825192      3.06002675248571     -0.77771759020371
  C   1.01963503219533     -0.18059464804316     -0.07272684811679
  H   4.93838724043180      0.59790481503383      0.24939865570357
  H   5.27074822472457     -1.08680401460781      0.23708906149153
  H   3.16169019201126     -2.78690089546225     -0.08310282522695
  H   1.09253076725920     -3.69123188774746     -0.18915311945038
  H   -1.04795977439135     -4.16848361142124     -0.09150181609965
  H   -2.93338883222092     -2.96792211473076      0.11741294908298
  H   -4.66628645355745      2.41231108513777      0.16780773595778
  H   -5.60690166835709      0.97485045418491      0.37519497652867
