24
Coordinates from ORCA-job ./opt_b97-3c_parallel
  N   3.00688512218768      3.23603243430985     -0.57650825562413
  C   2.80706269131033      2.11083471222376     -0.35653151915381
  C   2.55884329841997      0.75900987614963     -0.09647165099772
  C   3.49034652333946     -0.15108347982070      0.48611603931272
  C   2.89774920601059     -1.37349791998813      0.66052122192078
  C   1.57041619554143     -1.32681252320289      0.13905441022101
  N   0.90978005196865     -2.42426833327278     -0.08326103201887
  C   -0.30408775893511     -2.70583972944570     -0.55891140870648
  N   -1.47395469915798     -2.14005683378850     -0.42428957326480
  C   -1.85497382596862     -0.90000002827999     -0.13446204635215
  C   -3.16568981865470     -0.58788626622441      0.19933181343300
  C   -3.26514334191392      0.81519437971750      0.14548094104467
  N   -4.35215283602223      1.57306594101513      0.35408446250366
  N   -2.09564925693259      1.41177741408478     -0.20707964316956
  C   -1.18427409565132      0.43087772803613     -0.32973190500342
  C   0.14667717012899      0.79933250919791     -0.47240292993046
  C   1.32220532137072      0.10593476943644     -0.26731284820679
  H   4.50826165744446      0.10738733036391      0.73162760031213
  H   3.36044667738928     -2.27855033030564      1.01543393556719
  H   -0.34786310500234     -3.69206641323917     -1.01446242965416
  H   -3.95387670363453     -1.30306275959840      0.36385540214279
  H   -5.17873346924850      1.18966142965242      0.77119631470226
  H   -4.24408998376368      2.57175893089772      0.34522515560918
  H   0.26258229027231      1.86910152878142     -0.60717413838645
