29
Coordinates from ORCA-job ./opt_b97-3c_parallel
  N   -2.87133477918554      3.21505345053543     -0.48317291588182
  C   -2.13510413004748      2.32836982141942     -0.34456892488167
  C   -1.14415559887270      1.30684151875718     -0.25217703943903
  C   0.14873808053370      1.88397308524702     -0.42411139503780
  N   1.38246245765334      1.50285266440786     -0.26202875405157
  C   2.00790048524999      0.35066553087596     -0.11473281521702
  C   3.38617454284171      0.30191550101979      0.15486279799357
  C   4.26455538039799      1.35994853965347      0.38978923730948
  N   5.06619904445727      2.17889426021502      0.59040977449111
  C   3.76767000173907     -1.06608534600320      0.03137483455597
  N   4.99805750502827     -1.55513555332867      0.19584435813183
  N   2.72910848917933     -1.85990732939149     -0.28224148768068
  C   1.62749714301855     -1.07104168889772     -0.33116294962600
  C   0.40296644455477     -1.69481292873403     -0.45530243618233
  C   -0.92360165721925     -1.31021587376911     -0.28688191059662
  C   -1.90255884175919     -2.30043291966526     -0.22724358532006
  C   -3.13614044719902     -1.72362805694249      0.10660934949908
  N   -4.29878188458708     -2.34874058824678      0.30568773661514
  C   -2.95578455916632     -0.31232971658102      0.22031024117765
  C   -4.03612613371429      0.48384475671393      0.61338925484705
  N   -5.03110358836516      0.96318746775810      0.98121123862220
  C   -1.60729508355689      0.00191505004317     -0.05314255905540
  H   0.08038880023127      2.93800549904932     -0.67915012954104
  H   5.77535917977633     -0.94954884614643      0.38653995115122
  H   5.16859224658255     -2.52788399766418      0.01593284459603
  H   0.52381804479783     -2.76409006092115     -0.58576969511912
  H   -1.71744810746529     -3.35431504627649     -0.35849549096581
  H   -5.11724159145648     -1.82853622138078      0.57362860538070
  H   -4.37740645075525     -3.34539118935769      0.23318451291311
