24
Coordinates from ORCA-job ./opt_b97-3c_parallel
  N   -4.84568493819568      0.42942173604914      1.02382299108437
  C   -3.85544419919019     -0.10503738554784      0.73010670322451
  C   -2.64246262657602     -0.69975749401552      0.36988190546186
  C   -2.40355596228919     -2.02419761342270      0.02605903499490
  N   -1.12499099897875     -2.24436123049596     -0.33727826275068
  C   -0.46235855896997     -1.07809680873600     -0.24017073238200
  C   0.93809617938960     -1.11523774330092     -0.36870019184134
  C   1.47245723667249     -2.37782505150446     -0.76468127102059
  N   1.91850233033453     -3.38042242509426     -1.13704055340170
  C   1.89381260478084     -0.15427334816550     -0.01726807647877
  N   3.16647394055599     -0.53111388504791      0.17942874672793
  C   3.76370834782640      0.56827588819390      0.69087092542678
  N   3.02846030538628      1.67917600234266      0.78464916710229
  C   1.80989566199009      1.31333011155911      0.32036987020184
  N   0.92906420723463      2.24302536992716      0.06795639753271
  C   -0.34492202350651      2.28602467475115     -0.23727115417500
  N   -0.75917249653745      3.43862139062071     -0.80745664387598
  C   -1.37627897453944      1.36289345931753      0.11890739309210
  C   -1.40407458274107      0.00227101373469      0.15897463131516
  H   -3.11999146389858     -2.83087557723804      0.03447466477651
  H   4.79749336165362      0.54337305620962      1.00265363508308
  H   -0.08880015952877      4.17151682677034     -0.96113813003731
  H   -1.70376768894067      3.56646515073760     -1.11907162005003
  H   -2.32386087833295      1.84216111105470      0.34489482299096
