24
Coordinates from ORCA-job ./opt_b97-3c_parallel
  N   -4.79311827179063     -0.43628700872021      1.22644287824225
  C   -3.79420342776824      0.05199276145616      0.88787043611690
  C   -2.59612177392760      0.64689701670515      0.48053721467038
  C   -2.36814874080299      2.00496466650743      0.18136298492451
  N   -1.14173444881117      2.24776365978058     -0.28674735690936
  C   -0.47353432264257      1.06537834733361     -0.28100046294921
  C   0.90584036610493      1.08166888039100     -0.44443485523385
  C   1.44738381965309      2.33018331691514     -0.87671730065193
  N   1.97577089171266      3.29041283921388     -1.25422419594322
  C   1.87244321612315      0.12396667702056     -0.05523718474311
  C   3.19817395310483      0.42064647441321      0.17991499846672
  C   3.75031293325389     -0.69305042075433      0.87400426925530
  N   2.90055635864173     -1.68583710124818      1.06124888033683
  C   1.72674211049269     -1.29658168875205      0.44943791286812
  N   0.83886942562648     -2.20216505781268      0.22541833398534
  C   -0.36593081890176     -2.13707554588236     -0.36293559606452
  N   -0.63776798915634     -3.13971442981659     -1.21600665644197
  N   -1.36698878573769     -1.33333259196720     -0.04867460909923
  C   -1.40940979909883     -0.03626446463253      0.11950960703101
  H   -3.08377937375162      2.80555117818439      0.29427492551250
  H   3.69598388827069      1.35085716384232     -0.03666314018214
  H   4.76499123020888     -0.76436649471267      1.24078057793915
  H   -0.01203291609557     -3.92592665219143     -1.24704366902922
  H   -1.59307637450591     -3.27457299727264     -1.49919091390022
