30
Coordinates from ORCA-job ./opt_b97-3c_parallel
  N   4.94499235119174     -0.46847707427799     -1.01668780100960
  C   3.85950684755699     -0.74756194583552     -0.70778015202672
  C   2.55607081823865     -1.15428080071431     -0.39421112960064
  C   2.10882262521657     -2.50463547011406     -0.42312402452916
  N   0.82490726159790     -2.61275795193100     -0.15696816546525
  C   0.33508228275677     -1.33463399434307      0.00054437199246
  C   -1.02988500556156     -1.24339883188246      0.25507076206294
  C   -1.63781878807393     -2.49796687706108      0.58284065181130
  N   -2.23706108238184     -3.44183957304323      0.89034671199513
  C   -1.94869973466567     -0.17933899916540      0.11784939510170
  C   -3.31533156943394     -0.39177041002758      0.16773565307910
  C   -4.00303202468303      0.75890979425298     -0.31836448898357
  N   -5.34989663523026      0.87159755200353     -0.37173980581899
  C   -3.05779222448937      1.71476018298775     -0.66165666216054
  C   -1.76099053668654      1.22123492352527     -0.35768719793084
  C   -0.70011536396586      2.08385331260955     -0.38589908878310
  C   0.63550564452914      2.08445603485476      0.09403707639006
  N   1.10802891678008      3.35219642638451      0.32670306503730
  C   1.52913334851814      1.01107764388948      0.25036294978539
  C   2.77276477610681      1.39320174919850      0.81581036370564
  N   3.72323204436006      1.79397765299679      1.35264216958450
  C   1.42798068086522     -0.36131123857874     -0.11524689095035
  H   2.71611297120054     -3.36560067698521     -0.65903220128185
  H   -3.79029504587516     -1.31377407210976      0.46075157369170
  H   -5.76140658925909      1.60404666592406     -0.92076322423608
  H   -5.91317388622513      0.04843720820032     -0.25954054365298
  H   -3.26142411450131      2.71676327479245     -1.00490761195830
  H   -0.98708945004102      3.07029483750074     -0.73557624665109
  H   0.44703589494468      4.06016240613405      0.58872745231678
  H   2.02273345931066      3.46052644801441      0.73224871098510
