30
Coordinates from ORCA-job ./opt_b97-3c_parallel
  N   4.87867599040528      1.15119159338389     -1.74930440990394
  C   3.85910711030193      1.20940520758981     -1.19371517102915
  C   2.61931428388030      1.37588611050527     -0.56590261200595
  C   2.07741777263449      2.61483369148149     -0.19523354368328
  N   0.87462494403391      2.51265689456055      0.37828203813211
  C   0.53581108460735      1.20112522493530      0.37226132121262
  C   -0.82300095646744      0.92202608227068      0.59551597651361
  C   -1.56190915802353      2.01749456471313      1.13137203795805
  N   -2.19718530326491      2.83195274068450      1.65859277674728
  C   -1.58015093963708     -0.18514894534279      0.17847245990633
  C   -2.92924728708051     -0.15214631896009     -0.18448757480285
  C   -3.85911178172441      0.88907924938871     -0.22013873218949
  N   -4.75276080667330      1.62545364069960     -0.34107354980189
  C   -3.27855105787537     -1.43682151357815     -0.75691343098081
  N   -4.48638013378139     -1.69794529422816     -1.25575063978665
  C   -2.18041004737398     -2.28875514405066     -0.66916207879046
  C   -1.12659600426303     -1.59164181180375     -0.07047486150484
  N   -0.07024567917157     -2.20931579727829      0.39691559986514
  C   1.15408518383755     -1.93215099935725      0.74943996828808
  N   1.72054533308472     -2.76334261005049      1.64683185968820
  C   2.00897639650845     -0.93109914773943      0.13774259843683
  C   3.32143199984454     -1.40591809716577     -0.09089111119845
  N   4.36960334993407     -1.89770585983130     -0.19828876202857
  C   1.68560509890563      0.39193884409881     -0.12289608406284
  H   2.53785532162312      3.57826207142626     -0.35250018663487
  H   -5.20170317172324     -0.99003221934595     -1.25851261323939
  H   -4.68687546438380     -2.56917902867248     -1.71026816906851
  H   -2.15724059563247     -3.33795609544451     -0.90914925529724
  H   2.71153200922138     -2.73617230928621      1.81198456585382
  H   1.23166784369114     -3.61163540507694      1.87549400231867
