26
Coordinates from ORCA-job ./opt_b97-3c_parallel
  N   4.22781372290381     -1.73073891922810     -0.40294413678351
  C   3.36537056635218     -0.95743623530819     -0.28623106894751
  C   2.39600133834919      0.03619280187013     -0.14626300002392
  C   2.68237105315752      1.41912966194445     -0.02785872219274
  N   3.90809219602851      1.95589133090195     -0.11374938357489
  C   1.47275144724475      2.10923726393591      0.16949785231946
  C   0.40494283091581      1.21222988604647      0.15917527210563
  C   -0.90353220849903      1.66059182260577      0.19934496866041
  C   -2.13424224522990      1.04365235550208      0.05634331815255
  N   -3.24315813431083      1.82410310923466      0.01748357995886
  C   -4.25005033143652      0.95540377115784     -0.19379704007253
  N   -3.92997233155219     -0.33682934073485     -0.29113721590979
  C   -2.57186892859631     -0.35742944928225     -0.12730824325684
  C   -1.95266181151323     -1.58234406987851     -0.06999246248507
  C   -0.62078337203662     -2.00864634377900      0.11682395889904
  N   -0.46910717994435     -3.34411367606632      0.38792235055196
  N   0.54700721364022     -1.38726201893656      0.02648724215752
  C   0.99887183982804     -0.16538316071538     -0.00761278104361
  H   4.06296298685422      2.92286126318586      0.10083274789441
  H   4.71552488553676      1.36168797030428     -0.18127547217559
  H   1.37426692728009      3.17924207326805      0.26528039872332
  H   -1.00589557802037      2.73520204477530      0.30377689267005
  H   -5.27301637745904      1.29290024725305     -0.28094794205274
  H   -2.66927041609555     -2.38982814419154     -0.16846123397287
  H   -1.23803750616506     -3.97655179276492      0.26348105020993
  H   0.45765478436795     -3.71654238560015      0.27580616168850
