28
Coordinates from ORCA-job ./opt_b97-3c_parallel
  N   5.39451225967705      0.18412508022128     -0.99759806310279
  C   4.41855596919153     -0.38367688373095     -0.71922022943604
  C   3.23877077083000     -1.05388242454527     -0.38072308894729
  C   3.08557533582038     -2.43228897943555     -0.14841055802517
  C   1.78948860854976     -2.71505701471779      0.26596805912369
  C   1.03060645292570     -1.53439098374846      0.27322053649923
  N   -0.26830615756673     -1.57031733930337      0.40153151885554
  C   -1.21229067067843     -0.67446561466754      0.18891253288350
  C   -2.55891578879725     -1.09087428190744      0.15821459621620
  C   -3.06614954302932     -2.37115162945206      0.37312290558607
  N   -3.57351489199974     -3.40533011588921      0.53836119995156
  C   -3.32626903367520      0.04117574134660     -0.23865998762082
  N   -4.64139871008743      0.07389966616882     -0.43655090422799
  N   -2.56272948722036      1.13308176098131     -0.41117125557243
  C   -1.28740561481995      0.79166737727333     -0.14099233413266
  C   -0.36228812779810      1.83311223547491     -0.04101787289475
  C   -0.90337172583053      3.13509094364048     -0.20521951057680
  N   -1.24160943005711      4.24272942157860     -0.29734778113445
  C   1.03726795825802      1.81488663125645      0.27278114724734
  N   1.57721046022106      2.94442537426069      0.77977157097024
  N   1.94154123658930      0.88218528909020      0.01500661141700
  C   2.00839171679336     -0.40466163885735     -0.07250707141201
  H   3.87588157763125     -3.15562199393675     -0.27403851365728
  H   1.37647524023120     -3.68726744596145      0.47420097583689
  H   -5.21111353587027     -0.74041337603336     -0.29518935798941
  H   -5.07392751101584      0.93179888546539     -0.73012396589888
  H   2.57899251697496      3.02419164190669      0.75923229359101
  H   1.03178177925273      3.78112035772122      0.89159238434851
