26
Coordinates from ORCA-job ./opt_b97-3c_parallel
  N   5.17123936145653     -0.17876617239137      0.78142057297327
  C   4.18108924644457      0.39029992224134      0.56433399182510
  C   2.98397792055397      1.06364611658567      0.29820810058660
  C   2.81625493264212      2.44871549202594      0.12146660528665
  C   1.49951816440419      2.72645787933424     -0.22093363449394
  C   0.74996541250087      1.53528646773566     -0.23335005253478
  N   -0.55195043822108      1.57327183650478     -0.32601091505250
  C   -1.47592464523608      0.66000416378833     -0.10612908814745
  C   -2.83955298992192      1.05101304067068     -0.05064465309067
  C   -3.33601884303124      2.33686106016575     -0.28733799171086
  N   -3.77280921842031      3.39584146792191     -0.48263034275200
  C   -3.56781728498089     -0.07673080479679      0.37195485653524
  N   -2.79599051218961     -1.14690568838439      0.55112001066075
  C   -1.51667194980888     -0.79185690790173      0.24375105666841
  C   -0.60353969974968     -1.83292798909856      0.12562455470475
  C   -1.12597835802122     -3.13314506341089      0.36337626192306
  N   -1.42544518835473     -4.24587272609431      0.50826841491740
  C   0.78492931467954     -1.82116085839883     -0.25722421087493
  N   1.30007031412879     -2.95854363854662     -0.76952343379592
  N   1.68749013927234     -0.87785740296283     -0.05209694513997
  C   1.74058844021559      0.41200166498222      0.04312470750139
  H   3.60674310406571      3.17375909846776      0.23079153296907
  H   1.06713884787072      3.69775032701714     -0.39208268073489
  H   -4.63079258728543     -0.12119396565432      0.55389062958425
  H   0.75469545626483     -3.80046526893131     -0.83209767225729
  H   2.30181405382305     -3.03316230426929     -0.81170250674950
