24
Coordinates from ORCA-job ./opt_b97-3c_parallel
  N   4.37433607749260     -1.64881521370634      0.00465467663629
  C   3.26120216947091     -1.32415257274141      0.00446957106067
  C   1.86764313816094     -0.98155088890835      0.00416688347902
  C   1.08282941650520     -2.14962338870236      0.00186053503547
  C   -0.26590074786818     -2.41683264925580      0.00075863300270
  C   -1.42822450752098     -1.65268375071181      0.00127041059580
  N   -2.60751579794254     -2.33157239266148     -0.00032956725321
  C   -3.54554725124993     -1.37537243279743      0.00041585244229
  N   -3.09558336189216     -0.11094915347734      0.00233715379679
  C   -1.74554578101923     -0.22893995695140      0.00297363154216
  C   -0.99650961914847      0.96526392342187      0.00507872811579
  C   -1.83717579464058      2.12967060977838      0.00586040610337
  N   -2.44324378845102      3.11743103698964      0.00611423487946
  C   0.37230835693027      1.24048049675336      0.00659302890903
  C   0.82485044829143      2.57772019589922      0.00899132614123
  C   2.21390280132143      2.60873849016282      0.01017521334837
  C   2.69165363357307      1.30356529879403      0.00852701867230
  C   1.61300479223745      0.39433860642132      0.00626934396974
  H   1.68524664524542     -3.04773605764431      0.00078282979577
  H   -0.50162603879927     -3.47406796749534     -0.00092210086013
  H   -4.60016090639483     -1.60422222218267     -0.00047558239979
  H   0.17965391222553      3.43878717137980      0.00978478769768
  H   2.82138218105120      3.49962564484679      0.01206255461916
  H   3.73008515292170      1.01878540528881      0.00888482517007
