27
Coordinates from ORCA-job ./opt_b97-3c_parallel
  N   5.38049628447953     -1.98672607822033     -0.00865130844773
  C   4.50933269777176     -1.21828096483207     -0.00644958059644
  C   3.49120533616397     -0.25728157524502     -0.00312346621936
  C   3.64962098694695      1.14223026050650      0.00023050814611
  N   2.48601939779918      1.78295301847748      0.00307753718585
  C   1.49205578855523      0.84590649630696      0.00165195598037
  C   0.19371106933037      1.34689205051287      0.00379353619264
  C   0.14093042314566      2.77958018174739      0.00750687208817
  N   -0.03352769234728      3.92572022025002      0.01074772797865
  C   -1.08257220604845      0.73224146279778      0.00286637669660
  C   -2.24421657535177      1.49379320778434      0.00519240126051
  C   -3.37655175083359      0.64954690539076      0.00356960217520
  N   -4.65525480976752      1.03847448326125      0.00503584976332
  C   -2.91787783173532     -0.68560765473055      0.00016241792651
  C   -3.76835713769694     -1.79280226246463     -0.00216193685590
  N   -4.52443504746068     -2.67779425976122     -0.00405158874166
  C   -1.49325436513219     -0.69360599592964     -0.00041862234234
  C   -0.82420895369250     -1.89695133760237     -0.00336992005354
  C   0.50935342413406     -2.33720223120587     -0.00499415432532
  N   1.69039713930531     -1.77406267060912     -0.00475510082111
  C   2.09965141518353     -0.51739747767541     -0.00232492479272
  H   4.58408518823925      1.68253749832524      0.00063878875282
  H   -2.28207144231996      2.56985450865021      0.00784087970768
  H   -5.40020453903605      0.36438791195768      0.00352957748127
  H   -4.90467658380575      2.00960277046298      0.00729501532805
  H   -1.50302846593215     -2.74342364634031     -0.00491512830368
  H   0.57823488520588     -3.42195559961702     -0.00718764996549
