23
Coordinates from ORCA-job ./opt_b97-3c_parallel
  N   4.97435136075475      1.03234693296403      0.21654767746741
  C   3.97433828816853      0.44209872422080      0.16784987234777
  C   2.76485016344427     -0.26094634660788      0.10514754446709
  C   2.60030886845015     -1.66328227821485      0.11044866165105
  N   1.32540419416244     -2.01468420684921      0.01404578309151
  C   0.58532415781378     -0.86687380725493     -0.03979639421647
  C   -0.79835203516758     -1.02882820065275     -0.11535588006478
  C   -1.20788269191536     -2.39980986471308     -0.20065885785777
  N   -1.64594225096685     -3.46936324246689     -0.28786952647267
  C   -1.86451739247823     -0.10955941613648     -0.06861731405072
  C   -3.18856843657456     -0.51880022324843      0.01068639617706
  C   -3.96835955916559      0.63665092727058      0.21819678499821
  N   -3.25353264255338      1.75279805021503      0.24711357728119
  C   -1.93868352036971      1.39922215011010      0.05880952877644
  N   -1.10484827816275      2.38993832344549     -0.04633681418201
  C   0.20209072652002      2.52407203388203     -0.21497078840466
  C   1.29408293858676      1.67584505025798     -0.13233971441204
  C   1.47090383602220      0.30308604310190      0.00730524200071
  H   3.38481321367091     -2.40077779659816      0.18183981390883
  H   -3.54919810998578     -1.53194850681473     -0.04983359764981
  H   -5.04146242836131      0.66744051082373      0.34127893333738
  H   0.48073306836608      3.55996740258556     -0.38498328666900
  H   2.23161464344081      2.21937257077987     -0.18603267642534
