27
Coordinates from ORCA-job ./opt_b97-3c_parallel
  N   -2.82919925415140     -2.92013991126780     -0.09449417496747
  C   -2.00226002008826     -2.10561633059562     -0.04377207129911
  C   -0.85610860731801     -1.25753485803952      0.00873115500304
  C   0.36937084566696     -1.96859488058625      0.06813152459266
  N   0.28131606602534     -3.34111288105770      0.17120790550004
  C   1.69856827392573     -1.50140807926613      0.07495272443497
  C   2.36853877416563     -0.30565652320434      0.02552501328065
  C   3.78159150978466     -0.29742700091345      0.02394364524671
  C   4.24588372322778      1.01374824873085     -0.02430373886774
  C   3.16259222065040      1.88993221299473     -0.04916559246372
  C   1.96216111374287      1.15434493642098     -0.02043643929795
  N   0.82003439188818      1.79323364131314     -0.02128824756184
  C   -0.44350234494351      1.40989400137539     -0.00415168387646
  C   -1.44713266003244      2.38855434902618     -0.01545972396323
  C   -2.67214903899443      1.71747276875081     -0.01574347559429
  N   -3.91719747404744      2.23614192622270     -0.06082516188299
  N   -2.51553381059629      0.37046774657395     -0.00820137703777
  C   -1.19763677279558      0.10739017948261      0.00387860810129
  H   1.08542542650080     -3.87757059079616     -0.09733644637043
  H   -0.60206963692932     -3.78442477291372     -0.01612042160478
  H   2.39790601812068     -2.33098135076458      0.13551386224640
  H   4.39279973533512     -1.18650081478370      0.05380316621122
  H   5.28581224459615      1.30379581114775     -0.03840969033217
  H   3.19086589948732      2.96619762758393     -0.08142006849396
  H   -1.25925706968365      3.44858045893895     -0.03286287027811
  H   -4.06155370599784      3.19977022141881      0.17618606551516
  H   -4.67836264823942      1.60427261910814      0.11817950555993
