25
Coordinates from ORCA-job ./opt_b97-3c_parallel
  N   5.10044574402981     -1.09319331148373      0.02794550144515
  C   4.15187138734037     -0.41925292751981      0.02007235447746
  C   3.00315409827886      0.38205453211206      0.01035702499546
  C   3.00165296303876      1.80128984858110      0.00714166855779
  C   1.70386479289148      2.24457406692735     -0.00197463489483
  C   0.81229470919797      1.13256417941554     -0.00571160447201
  N   -0.47211885556097      1.37854524973728     -0.01405950317095
  C   -1.56423784014255      0.62348211838107     -0.02113003863598
  C   -2.81610417563507      1.24005341231902     -0.03025181564764
  C   -3.77494868197727      0.21485355309972     -0.03445529261791
  N   -5.11841432631521      0.33302623435180     -0.07954074053678
  N   -3.20794301146705     -1.01430738729129     -0.03159334839491
  C   -1.86832713560873     -0.84270914403398     -0.02421302106115
  C   -1.09061745675479     -1.99136995258407     -0.01380719390615
  C   0.27118053695785     -2.24691120903326     -0.00123086780096
  C   1.41415033473302     -1.46016903271196      0.00548031710635
  C   1.67259928356156     -0.09940160651034      0.00236823694332
  H   3.89237998991160      2.40869647704715      0.01139033455676
  H   1.35987851920277      3.26496017637054     -0.00660798424668
  H   -2.97422930698316      2.30553020010992     -0.03632216548984
  H   -5.54891590478404      1.20883419916749      0.15104124598403
  H   -5.65659301215718     -0.49776599647407      0.09434230163616
  H   -1.71065769253875     -2.87999811563314     -0.01842591964773
  H   0.49658827567696     -3.30656002357659      0.00361468658022
  H   2.32354532220375     -2.05214622126778      0.01401400814083
