28
Coordinates from ORCA-job ./opt_b97-3c_parallel
  N   2.34890774809815     -4.15344547069329     -0.00090871004434
  C   1.77990681048708     -3.14260223063126      0.01799936861522
  C   0.97912196629778     -1.96164644035723      0.05588018811463
  C   -0.39994883689683     -2.27535606568381      0.20027480108912
  N   -1.53415716405656     -1.63551522563012      0.14681011438021
  C   -1.90622392888029     -0.36906542653510      0.05823378505284
  C   -3.26251040375807     -0.04736701074571     -0.07860414643749
  C   -4.35347534347923     -0.91270271902403     -0.17869875310419
  N   -5.32012048057273     -1.55329907634353     -0.26588365395167
  C   -3.34978098040252      1.37721516985795     -0.02934128960451
  N   -4.46631424771665      2.09648950019633     -0.11234340948210
  N   -2.14682638159591      1.95489282653433      0.12221785019142
  C   -1.22622087862690      0.96340738620182      0.14987741810773
  C   0.10085187569854      1.33877087050231      0.18408086299448
  C   1.30790801737822      0.65883451606240      0.09262512066998
  C   2.52765214492443      1.35501212751057      0.04722524777366
  C   2.74501505211535      2.73109252255067      0.11120364780529
  N   2.98532472548789      3.86906333981228      0.15927339395373
  C   3.55053013696172      0.37106252761570     -0.11571146918380
  N   4.85645153313317      0.60031897047716     -0.21873506643420
  N   3.04528308429879     -0.86973602136624     -0.15868279160114
  C   1.70650330142814     -0.76843666984609     -0.02855159172980
  H   -0.54577861029372     -3.34208063812218      0.34811947828454
  H   -5.36270518905213      1.65773413791539     -0.22148700186455
  H   -4.41476692116657      3.09724820253272     -0.04372004638357
  H   0.20549326668827      2.41673819953890      0.23642359384928
  H   5.23054010472866      1.53085464200678     -0.17711322134836
  H   5.48434108797122     -0.17636040093684     -0.32768961261152
