27
Coordinates from ORCA-job ./opt_b97-3c_parallel
  N   5.27820041097778     -1.61833564043942     -0.00289134193114
  C   4.40128446579634     -0.85493126337958     -0.00171557270358
  C   3.33019060194873      0.04611754236189     -0.00048939767518
  C   3.39668201719158      1.44116967617691      0.00112455261538
  N   2.18365293802556      2.00688817635848      0.00189413265133
  C   1.26392931926741      1.01354017285048      0.00090351216443
  C   -0.08332527594329      1.41437169649158      0.00170649504819
  C   -0.25085589965113      2.83794809600158      0.00300664585246
  N   -0.40076211596507      3.98690447346976      0.00340663289974
  C   -1.30477442582175      0.71244130215807      0.00173699568461
  N   -2.41094079826334      1.47489651641417      0.00350171463641
  C   -3.47980560639476      0.65087227736076      0.00321388585709
  N   -4.71592356386064      1.15630873566869      0.00479669305762
  C   -3.09288319833885     -0.70383783018193      0.00107959115055
  C   -1.70398322568773     -0.72841953014208      0.00007540074023
  C   -0.99710934328950     -1.95488306103957     -0.00227918962365
  C   -1.84366426489948     -3.10808034881404     -0.00376895079242
  N   -2.52055543376924     -4.05025501036793     -0.00492636678320
  C   0.34879020156738     -2.30730047819998     -0.00337706832200
  C   1.55296293370389     -1.61870681205949     -0.00255987674700
  C   1.94437271867136     -0.29579077937911     -0.00073439519184
  H   4.29152418767356      2.04408653782429      0.00173755295818
  H   -5.52924516634154      0.57116045767681      0.00494587257269
  H   -4.83495430930185      2.15386043611324      0.00642678319975
  H   -3.74457165570757     -1.56070027566119      0.00032195892129
  H   0.49247517796067     -3.37961867050861     -0.00515987029031
  H   2.39983959745144     -2.29627447975377     -0.00370807574965
