30
Coordinates from ORCA-job ./opt_b97-3c_parallel
  N   -3.44587999939577      2.90976099123739      0.00184595978655
  C   -3.11746925110949      1.79358130157650     -0.00001633510264
  C   -2.86988127813332      0.41928907736443     -0.00249297210817
  C   -3.90053606948462     -0.55257372277458     -0.00520640310453
  N   -5.21102931829089     -0.27766745730175     -0.00492750992910
  C   -3.30128330437341     -1.82746224190347     -0.00750345036569
  C   -1.91423604820896     -1.70625376718503     -0.00629037940149
  C   -1.10453015794148     -2.83839974542379     -0.00790275854958
  C   0.25847343418238     -3.06823612513316     -0.00713511514976
  C   1.39830737787303     -2.27178448061108     -0.00466641834868
  C   1.64696796669415     -0.91155298332772     -0.00211207497502
  C   2.98167768334529     -0.42418830601877     -0.00031066942668
  C   4.15149811048993     -1.18551878581446     -0.00064261736933
  N   5.15063613124072     -1.78408665468422     -0.00072071067910
  C   2.97508939331577      0.99117995859417      0.00189183045342
  N   4.04808525948300      1.78573320155731      0.00375481859695
  C   1.62662290126663      1.41705152824537      0.00162451680980
  C   1.25309770324317      2.76356350870724      0.00355671315675
  N   1.05741036638871      3.91009765144407      0.00534775592349
  C   0.76899647738282      0.28764538656959     -0.00075895355172
  N   -0.52952933107371      0.50206187884431     -0.00110906244310
  C   -1.61041780997311     -0.23336630496810     -0.00308218267448
  H   -5.89980039789929     -1.00544850494210     -0.00960302412850
  H   -5.53197775688075      0.67451176361949     -0.00516328387845
  H   -3.83647425144044     -2.76471989977809     -0.00970452829497
  H   -1.68371030829687     -3.75604284176543     -0.01019377875306
  H   0.49951580764744     -4.12468580226507     -0.00890860757768
  H   2.31068333884939     -2.85856478837676     -0.00493005900635
  H   3.94439210794010      2.78468026821467      0.00571909574321
  H   4.97586352965958      1.40231602979907      0.00432763844787
