26
Coordinates from ORCA-job ./opt_b97-3c_parallel
  N   4.90929101621341     -1.06504491917240     -1.15484186985955
  C   4.10597772538328     -0.30081951710646     -0.80371617457338
  C   3.12877757688642      0.60508849574858     -0.38004519653021
  C   3.31465660625377      1.94583073115589     -0.02610900282982
  C   2.12643754726540      2.50109911904032      0.45202790112843
  C   1.10161220390892      1.55360440585110      0.38515764624224
  N   -0.15145872650272      1.90289255770761      0.52724409951031
  C   -1.28035276229764      1.28156842686489      0.25411094356334
  N   -2.40595171449974      2.01858424290077      0.23472090263625
  C   -3.36886204331819      1.16255574432749     -0.16242232077991
  N   -4.62984646235364      1.54990284595320     -0.33440105402584
  N   -2.99255392851397     -0.12400962573682     -0.38252590938443
  C   -1.68467297071119     -0.13647642621933     -0.11914674924675
  C   -1.03869226814427     -1.37959487744223     -0.03972602357544
  C   -1.88571049155760     -2.50799177086620     -0.18223819593263
  N   -2.49273664065902     -3.49606735188885     -0.25779459691600
  C   0.32409250987710     -1.69773693240040      0.22693585164178
  N   0.61232172094910     -2.93245831196672      0.69219431811066
  N   1.41641189833619     -0.98908040651375     -0.05014531820553
  C   1.77867256530798      0.24463512376596     -0.06930234020458
  H   4.25579438148604      2.46638283616831     -0.11262691353407
  H   1.96856881372263      3.52636830287100      0.74000900236996
  H   -4.88998664974021      2.50209512380559     -0.15661256828693
  H   -5.31886001679828      0.88774543787877     -0.64009711839226
  H   1.56541973266672     -3.24196899523073      0.61526470763842
  H   -0.10751839196054     -3.62426445359569      0.80906935573492
