27
Coordinates from ORCA-job ./opt_b97-3c_parallel
  N   -5.26560699990297     -0.07723500001968     -1.68509385439130
  C   -4.27000761955699      0.31625260899382     -1.23237244426896
  C   -3.07235755769150      0.79278933011471     -0.69095252933198
  C   -2.75425621203952      2.10775211315758     -0.33527287978232
  N   -1.56006220764709      2.23511582506075      0.27373298125192
  C   -1.00848656109939      1.00773621599745      0.32084896572348
  C   0.35923176322583      0.89330831849198      0.58227197709585
  C   0.95853873884343      2.07325174510105      1.10855088829918
  N   1.46790893082304      2.98030186456958      1.62106353076181
  C   1.24485278896724     -0.14149172519979      0.20068175573037
  C   2.59526846352953      0.02044738595724     -0.08636756948752
  C   3.44723634774081      1.12683697488561     -0.06280137151274
  N   4.28426590713226      1.93292644235192     -0.12523640217176
  C   3.03499476891196     -1.23971133633070     -0.65511060214372
  N   4.25295318976703     -1.45616555261229     -1.13298189276137
  N   2.08364432917779     -2.16954004094099     -0.65868707125358
  C   0.98347306705960     -1.59918606986779     -0.11796138613380
  N   -0.00882474355375     -2.36123670802486      0.22999885200745
  C   -1.24661844142618     -2.10675447006507      0.62175408563676
  N   -1.74863214631605     -2.89967592563130      1.58102962022190
  N   -2.12475621788319     -1.28346899372829      0.03386480317840
  C   -2.01118942009528     -0.00835825944650     -0.17696549946634
  H   -3.37376290319849      2.97579978640699     -0.50421378892275
  H   4.95611316653320     -0.73819022641179     -1.10991199441603
  H   4.47186733803029     -2.34561285610605     -1.54587479108916
  H   -1.21112732932121     -3.69421259439944      1.88101533262514
  H   -2.74212609940971     -2.90174857690969      1.73274114610491
