24
Coordinates from ORCA-job ./opt_b97-3c_parallel
  N   4.34671120976483     -1.68473865729322     -0.00228773467956
  C   3.25633641576509     -1.29029628820537     -0.00184417220403
  C   1.85809235785544     -0.97339781139731     -0.00143408753666
  C   1.06223147236086     -2.12150971739715     -0.00156035462261
  C   -0.29768418612597     -2.36871542781018     -0.00118057693904
  C   -1.46283589099606     -1.61682924987512     -0.00047557472603
  N   -2.61375254086983     -2.33903848570331     -0.00015208893207
  C   -3.63283113192798     -1.46225287575368      0.00056331511068
  C   -3.19870960689572     -0.14218582587622      0.00068410212023
  C   -1.79103743015529     -0.17390748100389      0.00002924622582
  C   -1.01488303340705      0.99377775441366     -0.00016681571331
  C   -1.80781049411156      2.19039438175921      0.00022468256314
  N   -2.45539659568958      3.15172441222954      0.00032485518166
  C   0.36585635667382      1.24571073975692     -0.00065207978799
  C   0.86782850687028      2.56527374752058     -0.00062123193081
  C   2.25078376841441      2.47800601902923     -0.00092580594091
  N   2.67891130849585      1.20215947836009     -0.00116151245213
  C   1.58801831031612      0.40487537726619     -0.00103426872031
  H   1.64951724945060     -3.02940242696800     -0.00201666607436
  H   -0.54089954862180     -3.42423027088651     -0.00141421170699
  H   -4.65443898898207     -1.81131185845364      0.00096605875124
  H   -3.81618844549889      0.73964380871602      0.00117283948164
  H   0.27923497900177      3.46634858880530     -0.00037278952384
  H   2.95966150651273      3.29173070206685     -0.00098752784376
