27
Coordinates from ORCA-job ./opt_b97-3c_parallel
  N   -4.47665640210938      1.96895020099032     -0.72182211952306
  C   -3.77096281805965      1.10151240977232     -0.40425187531694
  C   -3.07242117761468     -0.06161422557051     -0.04714870779166
  C   -3.79225332415949     -1.21765250128781      0.37945691257453
  C   -2.92468043409505     -2.25321051183746      0.57359902667363
  C   -1.60788061272023     -1.84414160554839      0.20948084478496
  N   -0.71885185024877     -2.77701090274617      0.03910828665507
  C   0.53774157177932     -2.83438317254256     -0.38227319443604
  C   1.58083871676650     -1.93488518320292     -0.39152484714489
  C   1.68854746087082     -0.57597872353768     -0.10172595361256
  C   2.94768406935787      0.04415916124675      0.00679799975769
  C   4.20767230242492     -0.55190753993325     -0.05569779204800
  N   5.27923067801548     -1.00389815218212     -0.10346617414433
  C   2.69982001132908      1.43352159017991      0.20153493853715
  N   3.60868788028795      2.39210655299215      0.38392167723981
  N   1.38672986151572      1.69931615442250      0.18672237728049
  C   0.72681773251258      0.53210871347614      0.01730300305617
  C   -0.68325012191907      0.62113429388583     -0.07788766880017
  C   -1.12050355360988      1.98334346884862     -0.05667102425068
  N   -1.47650211085953      3.08592297182819     -0.02731668666844
  C   -1.69070975128443     -0.35240521134569     -0.08238684321655
  H   -4.86470246980174     -1.24148539094178      0.48533468319780
  H   -3.16319342686655     -3.27178142139776      0.82741608973309
  H   0.82292939406836     -3.84192495711695     -0.67057268743325
  H   2.53212104210823     -2.40274851652541     -0.62096721859953
  H   3.30364566759322      3.34363046283593      0.48401604421309
  H   4.59182094910905      2.19337815554189      0.36552910028233
