24
Coordinates from ORCA-job ./opt_b97-3c_parallel
  N   -2.79218177917479      3.16423419289390     -0.01121028293000
  C   -1.97076158666695      2.34533958952880     -0.01036084862975
  C   -0.86585391938915      1.43471224116745     -0.00722708643680
  C   0.37086678617034      2.11045382065271      0.00212154079975
  C   1.70080391365818      1.75946928744378      0.00566624800974
  C   2.41612787034259      0.56088516617864      0.00317949873974
  N   3.76401183571243      0.62784974034027      0.00681030787340
  C   4.16332939042247     -0.66391543005153      0.00521861094593
  N   3.20450963949435     -1.58806113893453      0.00157741567315
  C   2.04375210741270     -0.86188811640010     -0.00017050026219
  C   0.85463998869681     -1.55343909671073     -0.00326090303137
  C   -0.49439211071810     -1.19855977267410     -0.00712871679294
  C   -1.48039821224798     -2.17843288865944     -0.01084258238921
  C   -2.72313259730619     -1.50926506988243     -0.01797749940415
  N   -3.95037981202648     -2.04974277510329     -0.04668618633955
  N   -2.57037180096011     -0.17026169063917     -0.02021276275974
  C   -1.24769968396893      0.08596430962837     -0.01403003765451
  H   0.23260401428865      3.18364423243970      0.00588686346051
  H   2.37388237489401      2.60821609438041      0.01112665973158
  H   5.21082546254896     -0.92769791441511      0.00696362222615
  H   1.02227967022350     -2.62491169470068     -0.00238914626664
  H   -1.31030014503471     -3.24311969157293     -0.01204179506735
  H   -4.08977363235919     -3.03173684809043      0.09494034396336
  H   -4.74227129131237     -1.43916109851955      0.04962219524087
