27
Coordinates from ORCA-job ./opt_b97-3c_parallel
  N   -5.09349988474460     -0.59308595645950     -1.04718502979716
  C   -4.12651686790056     -0.01465637280163     -0.75603576392229
  C   -2.93875197439604      0.62877313192327     -0.39986548762407
  C   -2.73426717397578      1.97227350800038     -0.12795091017390
  N   -1.46702941401582      2.24309455044299      0.24786545272502
  C   -0.77872208575475      1.08759681991238      0.23339618867133
  C   0.61621916506343      1.16113373286886      0.40975531681362
  C   1.10437257564371      2.46636901381452      0.72405078515390
  N   1.51967966840091      3.50643137580608      1.02229768095130
  C   1.61978404774198      0.20988503631484      0.17864270004316
  N   2.87812715009546      0.64547064187999      0.05486826652851
  C   3.63650548905590     -0.42104782817119     -0.31090716809989
  N   4.94135528927068     -0.24078476056796     -0.53323916290845
  C   2.89816946464004     -1.61482690005056     -0.37896013948145
  C   1.59000827771665     -1.29284533512106     -0.04090770451618
  N   0.70078380246478     -2.24400413278146      0.18280796490192
  C   -0.59583986714326     -2.30217734901795      0.34664887620060
  N   -1.04802639033919     -3.48088386564394      0.85829834951638
  C   -1.62458929821418     -1.38850164356066     -0.03845631342163
  C   -1.68583798999722     -0.03271940863089     -0.12438765808704
  H   -3.46707342593068      2.76161813291193     -0.19539641627590
  H   5.52317917304349     -0.97265351430222     -0.89333043008156
  H   5.31874643384722      0.68757785993306     -0.45886836221382
  H   3.26146479866916     -2.61271874984828     -0.55587638647051
  H   -2.02777210955784     -3.69161696366505      0.89399276166056
  H   -0.39355951449080     -4.23834877651268      0.94024161697061
  H   -2.56515167429225     -1.88249167217118     -0.26218600766368
