31
Coordinates from ORCA-job ./opt_b97-3c_parallel
  N   3.06253925160561      4.25817320631041      0.51500812105213
  C   2.35288833271277      3.34638312298371      0.40828198420480
  C   1.40684956710283      2.28637078003441      0.33312265273399
  C   0.10599280420907      2.67984732344739      0.70405194523747
  N   -1.06780471768727      2.18584673245240      0.43891621834789
  C   -1.59764384785624      1.04016135624635      0.08943304902910
  C   -2.94243219433317      0.98993404540654     -0.33613343122806
  C   -3.77956830296209      2.07488912520915     -0.60257107936785
  N   -4.53647390246099      2.92375043230610     -0.84540399201885
  C   -3.37720670045038     -0.35513550696072     -0.30326808590234
  N   -4.58299476036219     -0.79702349933370     -0.63249476987717
  C   -2.29834663192688     -1.17555597698943      0.15121519035272
  C   -2.47114948913525     -2.56218422552839      0.19770291053819
  N   -2.79278859358593     -3.68019369535768      0.17153246586148
  C   -1.15214875628706     -0.37006241552068      0.30569431261933
  C   0.14250037501064     -0.87259410377206      0.49213765062206
  C   0.21146496198651     -2.18332434607530      1.04097544320982
  N   0.28251652123333     -3.18381590875220      1.62582947390115
  C   1.38853644567408     -0.33720925769956      0.07888649451211
  C   2.48294368659764     -1.14784781749843     -0.25691366319785
  C   2.61629859468450     -2.53193963711433     -0.39450861828396
  N   2.88042946293685     -3.64780978786592     -0.59079035735913
  C   3.53310839243722     -0.26111388038721     -0.66290631663844
  N   4.72072127001246     -0.62387313662739     -1.12881063334994
  N   3.17842973305557      1.02613390804959     -0.53913092843096
  C   1.90862777381718      1.05068177040456     -0.10149725780181
  H   0.06178154444408      3.65134711734081      1.18777408445169
  H   -4.81561395764685     -1.77222808163749     -0.54325207227464
  H   -5.29101221649916     -0.16570853431522     -0.96557247384562
  H   5.38040597679163      0.08253969909179     -1.40416178385616
  H   4.97524547417760     -1.59290568204924     -1.20941212154287
