29
Coordinates from ORCA-job ./opt_b97-3c_parallel
  N   -4.93438899400104     -1.39486297185546     -0.32517311972959
  C   -3.99876251866810     -0.71590898389873     -0.20527391555601
  C   -2.97159510951181      0.21484330145122     -0.00256387732889
  C   -3.22323533550788      1.50557322274767      0.53081611728696
  N   -2.12475381546302      2.20537247634676      0.72901727865475
  C   -1.06802721091383      1.42597560704741      0.33031577804560
  C   0.11935359243678      2.12555966683580      0.18313196691226
  C   -0.00758486437577      3.51377279816896      0.49671425991011
  N   0.05190603251852      4.65741277741944      0.68944140739264
  C   1.43746747963497      1.78915508032181     -0.30585163070009
  N   2.14078591771649      2.81714167975666     -0.81696959196163
  C   2.11170032423975      0.55386649596657     -0.16779876465481
  C   3.51266217524045      0.63857543262023     -0.39466951170110
  N   4.63225484203303      0.83111541097101     -0.63721419276655
  C   1.68823054247810     -0.74255205497604      0.18909648227792
  N   2.63853444144754     -1.63534233392601      0.48066580661236
  C   1.99371863616811     -2.82823481997092      0.49482918843085
  N   2.61153290354820     -3.96069828427020      0.80764234437948
  N   0.67967402320397     -2.79109551268148      0.17458457501344
  C   0.41112787566814     -1.49104755091683      0.01220357671115
  C   -0.90012229971387     -1.11672936862532     -0.34445527568738
  C   -1.65371936363256     -2.19093656029178     -0.89493454102136
  N   -2.21630616822010     -3.04724395170690     -1.43875614897265
  C   -1.56791125606895      0.08593639709871     -0.08660929243440
  H   -4.19817198823221      1.90188638932858      0.77299990570958
  H   3.12363241589686      2.71449051744974     -1.00805594220159
  H   1.77850773309876      3.75412211896016     -0.77263831909582
  H   2.10862818920654     -4.82903413091582      0.78091806961449
  H   3.58934128177289     -3.95426112695521      1.03370276146018
