29
Coordinates from ORCA-job ./opt_b97-3c_parallel
  N   2.30166465115941     -4.15701932242858     -0.04471403297688
  C   1.74483847657082     -3.13944117366793     -0.03537361386077
  C   0.95940531734417     -1.94605267810220     -0.03004312028399
  C   -0.42178220812334     -2.23621655510608     -0.06630266406798
  N   -1.55105011474973     -1.56778155368671     -0.03691003161984
  C   -1.90788327494182     -0.30268605979060     -0.01220875304965
  C   -3.28215100281475      0.00457236458875      0.03361654654962
  C   -4.34882422583234     -0.89714421751653      0.06849971488096
  N   -5.30628891711750     -1.55694378568614      0.09841665121961
  C   -3.45236970679429      1.41867957084734      0.01746264586757
  N   -4.63603683994592      2.03895484293810      0.05086765701546
  C   -2.18095023179662      2.01229659919013     -0.03691449497296
  C   -1.19606366727816      1.02272339565404     -0.04714839181542
  C   0.14327979055701      1.36539848845817     -0.05512431152907
  C   1.33866250082841      0.66553584613823     -0.02454333526895
  C   2.57805947365403      1.34723797371101     -0.00487280228304
  C   2.79914294854928      2.72293828744488     -0.01798578942315
  N   3.02029067634372      3.86650036202596     -0.02807282438205
  C   3.58595785102605      0.34641897587460      0.04280792617279
  N   4.90485513712490      0.53837763714796      0.08108368366422
  N   3.05709910579392     -0.88943413994294      0.04798825996416
  C   1.71631409040371     -0.76108452900212      0.00693249840721
  H   -0.59759339142018     -3.30707507269991     -0.11363476229338
  H   -4.70464266595276      3.03871957703684      0.02080555652106
  H   -5.49019078498481      1.51029046042589      0.08215004140100
  H   -1.98747239754925      3.07358290678475     -0.05498041314208
  H   0.29554392020140      2.44039224270776     -0.07267905797133
  H   5.30187208847529      1.45948385103852      0.06768652710618
  H   5.51496093217885     -0.25868571898506      0.10628372267076
