27
Coordinates from ORCA-job ./opt_b97-3c_parallel
  N   3.18803812060355      3.46119532496365     -0.12798846141071
  C   2.39921998143584      2.60943472126958     -0.10613249724761
  C   1.44155566610598      1.55361584419826     -0.07950529739878
  C   0.13203856394534      2.03398406984098     -0.17023183667696
  N   -1.08028066698275      1.51747055400816     -0.06834488786317
  C   -1.57054150881776      0.31023631358310     -0.03089157151445
  C   -2.96713641179025      0.13644969307420      0.11524273302176
  C   -3.93294605960742      1.13372757973557      0.25838241555031
  N   -4.81009066602539      1.88906082740391      0.38058900380549
  C   -3.27925121694255     -1.24261085331898      0.01164470967923
  N   -4.51159172513123     -1.74871657965700      0.08841652424526
  C   -2.08414806720664     -1.96965686311886     -0.17808171193317
  C   -0.99873244062240     -1.10730817787491     -0.18206207116971
  N   0.21782579507032     -1.61874451627304     -0.23163679625712
  C   1.42410110233555     -1.13498478410469     -0.12111049091730
  N   2.43480494117498     -2.04077617769754     -0.10408098804119
  C   3.57179643983108     -1.35373088854710      0.06645581640392
  N   4.74733490847562     -1.98518818873710      0.14014394775557
  C   3.36515577222342      0.05154828577353      0.15155171375864
  C   2.01161627457388      0.25974593329693      0.02512182557249
  H   0.09497257102890      3.11132910737963     -0.30300368893836
  H   -4.68163292542162     -2.72938551642682     -0.03366038877679
  H   -5.30573855022982     -1.14468684075828      0.21297060439474
  H   -1.99533120886323     -3.04032890773045     -0.26150500180827
  H   5.60672910182970     -1.48908920942474      0.27918654208534
  H   4.76993549886609     -2.98630702787618      0.06369734948686
  H   4.12541652894011      0.80693920281798      0.26480000189361
