27
Coordinates from ORCA-job ./opt_b97-3c_parallel
  N   -4.89094425248735     -1.83178664865392     -0.99401907368969
  C   -4.25894369505482     -0.91600488686968     -0.65473235931017
  C   -3.45037936633520      0.15139869807876     -0.24700087008145
  C   -3.87741255065842      1.40446099248230      0.16459881154856
  C   -2.76043320972613      2.16776367016592      0.53617680133478
  C   -1.59039427185929      1.42296355116499      0.37272900119473
  N   -0.42299745447651      2.03977035109493      0.48170900435112
  C   0.79751555698026      1.68789250604770      0.21802061894201
  N   1.71536478279298      2.72542714895307      0.16001797878018
  C   2.86176625901256      2.20860087037339     -0.20003898100070
  C   2.81760855769942      0.78241592297125     -0.32875886011354
  C   3.90885389173664      0.01287489424971     -0.75307255308631
  N   4.84357981648671     -0.55193888432632     -1.15137000023250
  C   1.50311815266647      0.39124683110064     -0.05794367490330
  C   1.13842771489537     -0.96432989184797      0.16771585249957
  C   2.20605888599378     -1.82889649578589      0.52596233804751
  N   2.97932636739966     -2.61576364009147      0.89199549545203
  C   -0.09318793231224     -1.64195943974115      0.07123798569035
  N   -0.09734629645088     -2.99439395928740      0.21222475947687
  C   -1.38711154774100     -1.12395130053423     -0.23941261152808
  C   -2.00827320851979      0.07081756931535     -0.09239012043357
  H   -4.90481083553255      1.72935015633142      0.18635702847799
  H   -2.76139622432725      3.19806546557681      0.85031417912671
  H   3.73150177273736      2.82035169808880     -0.39087498197516
  H   -0.96416260312812     -3.48373311274845      0.33155372878566
  H   0.74014808821160     -3.48973439859095      0.46641275920539
  H   -2.06036278640347     -1.91122703571757     -0.56460169795799
