23
Coordinates from ORCA-job ./opt_b97-3c_parallel
  N   2.79285640446701      3.27043114199083     -0.00178073805645
  C   1.91429667836836      2.51221829691343     -0.00043581034394
  C   0.83443694659619      1.57568524833316      0.00091389089215
  C   -0.40640255977297      2.20391946764780      0.00198569578791
  C   -1.73054091803994      1.78165562940136      0.00340390597251
  C   -2.36258626482539      0.55768072359301      0.00434862726290
  N   -3.72045185369611      0.54292676838359      0.00573553916292
  C   -4.03187419271232     -0.75934693180505      0.00643451937018
  N   -3.01394655871044     -1.63933653251060      0.00563378197572
  C   -1.90269258291347     -0.87392027100270      0.00428778772928
  N   -0.73858173877720     -1.48884313906653      0.00323286216386
  C   0.50989518780665     -1.11536669466381      0.00194625796366
  N   1.42448255042181     -2.11370587359683      0.00133365313220
  C   2.63944453458286     -1.54808517046779      0.00005185661644
  N   3.74137760159219     -2.30110254751935     -0.00085560435783
  C   2.58456338920185     -0.12829468918403     -0.00028421866879
  C   1.25390685150343      0.22139872925223      0.00088788662736
  H   -0.32034279801116      3.28284030493949      0.00162426210563
  H   -2.44535411050933      2.59565511878403      0.00390138465422
  H   -5.06017038915920     -1.09153615555247      0.00759645649022
  H   4.65945250804062     -1.89918662340140     -0.00128161578074
  H   3.64840297036300     -3.30146683053473     -0.00011849223801
  H   3.42695891888354      0.54402523576618     -0.00127809816153
