24
Coordinates from ORCA-job ./opt_b97-3c_parallel
  N   3.82575218701442      2.42297325982026     -0.47623748737140
  C   3.19928689349573      1.46964714981486     -0.25037634840900
  C   2.58556616982549      0.24646400494719      0.04759450480747
  C   3.29140341130113     -0.77295434823101      0.77237067789694
  C   2.50046473194733     -1.86752238312347      0.96000973726648
  C   1.27169809300530     -1.65315914481952      0.26301576536042
  N   0.54500723311332     -2.64914166002979     -0.11953480437679
  C   -0.56803678137133     -2.74520842963132     -0.84627303536054
  N   -1.70543614643280     -2.13690964759057     -0.71315835854216
  C   -1.99110856750842     -0.96304385816590     -0.16797620430890
  N   -3.22776494828490     -0.68410291989352      0.24031189492062
  C   -3.21478850143839      0.66065179834039      0.41929797275134
  N   -4.27953896897605      1.32032668937135      0.86137144263942
  N   -2.05822518562299      1.30764435807679      0.11917929329603
  C   -1.21033745400163      0.32463110278137     -0.18997782460487
  C   0.15883608799696      0.62386020139142     -0.39912392043630
  C   0.38701231258168      2.00987448778305     -0.63626475550216
  N   0.53897435827008      3.13168988670084     -0.88662751196054
  C   1.27275694776270     -0.19551538323105     -0.18738976290624
  H   4.31609511467410     -0.66172686833621      1.09007372431751
  H   2.78541743054506     -2.81719545783962      1.37891413258182
  H   -0.56333819304565     -3.58160441814119     -1.54058813418931
  H   -5.12724839773331      0.82441069555667      1.06647091440902
  H   -4.25235444731793      2.32120734714992      0.93171639022113
