29
Coordinates from ORCA-job ./opt_b97-3c_parallel
  N   4.88940712928101      0.04022100370255     -1.58943407351301
  C   3.93212576036778     -0.41296802619952     -1.11141183212777
  C   2.78379787499260     -1.02093629804019     -0.58716066231456
  C   2.59252342697955     -2.42199013339596     -0.47881823261281
  N   1.40142176580968     -2.74108927204778     -0.00270667445125
  C   0.70455044894456     -1.57698806951103      0.14740269938970
  C   -0.61386720360454     -1.68753771620639      0.56545689725678
  C   -0.99261989640340     -2.96735785896350      1.06749220673224
  N   -1.31348321909022     -3.97809005015199      1.53523029684319
  C   -1.69322953766331     -0.78998609305139      0.36900754669616
  N   -2.92471851837220     -1.27340900167390      0.47422231952067
  C   -3.72617454696908     -0.27769803314312     -0.01952624515505
  N   -5.04137645331233     -0.43960132900259     -0.09197387285346
  N   -3.09822441156697      0.83824536387927     -0.41163207628782
  C   -1.79352573050777      0.60590421041560     -0.15327921739814
  C   -0.92289950813643      1.69170345024465     -0.24804379677463
  C   -1.56762946441997      2.88892594812613     -0.66812401701081
  N   -1.99413035033048      3.92085226070808     -0.98793128184193
  C   0.43616450600059      1.89066270848733      0.17376818981859
  N   0.74814157995565      3.15783578263731      0.51541705221964
  C   1.50042694172311      0.94722403233888      0.17916090710928
  C   2.73928477385862      1.52078678437687      0.56662647952052
  N   3.68949326015056      2.05761971119361      0.96700545203697
  C   1.57893826639710     -0.41796385879494     -0.17932687317661
  H   3.30170139204479     -3.17986500897262     -0.77634290424711
  H   -5.61845857490181      0.28668450520275     -0.47536902165428
  H   -5.45808417089859     -1.29368981313761      0.23087330271840
  H   1.70555602752437      3.43778308648746      0.64366244090225
  H   0.06217967314704      3.88869666549007      0.44603046915361
