28
Coordinates from ORCA-job ./opt_b97-3c_parallel
  N   4.56790842381353     -2.46192142344152      0.00210757118735
  C   3.59987025966960     -1.82274174778317      0.00211671175689
  C   2.38701887035360     -1.06439412421470      0.00200759757956
  C   1.26260470740870     -1.93461043839512      0.00004983145655
  N   -0.03862124834280     -1.80773200564299     -0.00122571141794
  C   -0.91099007828376     -0.82057803534129     -0.00094474545299
  C   -2.29397781755921     -1.16117378469830     -0.00307570147222
  C   -2.83735163726213     -2.44901353464613     -0.00571519560707
  N   -3.38175941732614     -3.47647465936677     -0.00794512878948
  C   -3.07283242804963      0.01187509943128     -0.00221483359139
  N   -4.40660744890609      0.08514893410748     -0.00323712614587
  C   -2.17666986632166      1.11648460867092      0.00049555981436
  C   -2.60128781592388      2.44701814859310      0.00187269443080
  N   -2.99525844703658      3.54255181476522      0.00267302282086
  C   -0.83856810651996      0.65101554759653      0.00130373810653
  C   0.21579384399420      1.55239190225480      0.00360793903574
  C   1.59187798126087      1.45476887077246      0.00460808792476
  C   2.36789720102100      2.62801029358816      0.00678894777797
  C   3.72221044800325      2.29339625417941      0.00727143674553
  C   3.84447668415833      0.90705795400268      0.00545953351204
  C   2.56235517728758      0.31986356188558      0.00376600290352
  H   1.56488088287461     -2.97790745753539     -0.00073182935225
  H   -4.87750310149059      0.97167840611421     -0.00411594659105
  H   -4.96512034241956     -0.74941735145820     -0.00670972863149
  H   -0.12018724690331      2.58469802632378      0.00479235807934
  H   1.95711746046327      3.62530206962246      0.00784617695584
  H   4.54356092142022      2.99266878567992      0.00879908968650
  H   4.77089848601655      0.35771163983559      0.00538240977762
