29
Coordinates from ORCA-job ./opt_b97-3c_parallel
  N   -3.12125101475490     -2.78543623343122      0.52849910599480
  C   -2.61121107933859     -1.77094935282617      0.27054981649882
  C   -2.25417871775200     -0.44019960134883      0.02613046657758
  C   -3.29388798857005      0.54436630251295      0.02350084288576
  N   -4.60558711846425      0.24869516813302      0.10646377108267
  C   -2.70181912801259      1.79398433204604     -0.10078541976281
  C   -1.30197823484971      1.65774731274079     -0.13265568848621
  C   -0.53672178577298      2.81489234820946     -0.19434656507356
  C   0.80612568257705      3.15291164996873     -0.10473094978068
  C   1.97990343691349      2.44860597759867      0.05503910823872
  C   2.32017011808054      1.09825768744107      0.08701239048277
  C   3.65333018332665      0.70208586580677      0.20988316828709
  C   3.67491998305814     -0.69546710139802      0.07874431750977
  N   4.74361554810509     -1.52016371378348      0.08847170007105
  N   2.44017733505009     -1.20006955599781     -0.11999360621439
  C   1.57019480401251     -0.16893431572347     -0.10503401120380
  C   0.20747295698872     -0.51375025864548     -0.22545001878553
  C   0.04957746477303     -1.90114526584216     -0.54368954999448
  N   -0.10494004975246     -2.99721157443668     -0.88976113488143
  C   -0.99922668586931      0.20081652427691     -0.08602584540198
  H   -4.87552797123896     -0.68957627382449      0.35077212213186
  H   -5.26677876840823      0.97370122764463      0.31312519711777
  H   -3.22173192388544      2.73800129685135     -0.13912644988172
  H   -1.16684801376042      3.69440344928205     -0.27623522882420
  H   0.96298678900018      4.22494706298813     -0.13659718509207
  H   2.84827792321024      3.09163948715328      0.15299595973686
  H   4.49646593235937      1.36268685948112      0.33585419812555
  H   5.60714392575529     -1.20946960599787      0.49267454579760
  H   4.55180057191948     -2.50608726897933      0.13231121194417
