29
Coordinates from ORCA-job ./opt_b97-3c_parallel
  N   -4.40831303053629     -3.09709165972954      0.61938202356045
  C   -3.89477002871545     -2.08715958399657      0.35724491851880
  C   -3.26150481541673     -0.87912920341554      0.04846445591915
  C   -3.85419186745869      0.27553105877542     -0.51889736559032
  N   -2.97180754070749      1.23907868026695     -0.72152531851969
  C   -1.75084029257391      0.77639617950926     -0.28991614671500
  C   -0.74921289166685      1.73736094809921     -0.19073986597184
  C   -1.17312387695667      3.04031112435569     -0.59029565756551
  N   -1.38853630859047      4.14684668466067     -0.86848553049720
  C   0.58278290594320      1.72122628244822      0.35059002358715
  N   1.01317358855604      2.90420838770268      0.84795363697269
  C   1.53824493342940      0.66063526077417      0.28314515207094
  C   2.84668935347247      1.11690990624508      0.60874881167434
  N   3.84923733023706      1.57426721175922      0.97675983205324
  C   1.45861934537873     -0.71660773187670     -0.00377623828009
  C   2.60206733462917     -1.49386808102178     -0.32635915660422
  C   3.83540712099408     -1.04920814434039     -0.82564854419520
  N   4.85626985889265     -0.74967094135785     -1.29316957738050
  C   2.29691317259672     -2.86553771177953     -0.15939311663933
  C   0.99505822481132     -2.98385732906968      0.27207643913155
  C   0.39438163217427     -1.70069195942077      0.30953318873711
  C   -0.96579714241265     -1.60374340998126      0.47294519970742
  C   -1.87920831092010     -0.60221240208877      0.17000384210514
  H   -4.89611564811551      0.40177739172481     -0.77007853775454
  H   0.43895963216719      3.72375583928671      0.75456224808960
  H   1.99198995705009      3.06194236694120      1.01674976109603
  H   2.98458776214496     -3.66872360201272     -0.36679786645273
  H   0.46495041287675     -3.90346563276713      0.45935326641703
  H   -1.43414859857899     -2.54373035724167      0.74579629112617
