26
Coordinates from ORCA-job ./opt_b97-3c_parallel
  N   -4.84625515394734     -1.72831942667841      0.65139863370681
  C   -4.11074903885914     -0.84624908719566      0.46656991534777
  C   -3.19431797268046      0.18522803278231      0.23858780816658
  C   -3.45847288793245      1.55136516690395      0.09912432507052
  N   -2.35114293256073      2.26291322545747     -0.14417982843081
  C   -1.30430315880869      1.39274960970994     -0.16801106117017
  C   -0.03991291917819      1.94723352948380     -0.30675839524870
  C   1.23957087690803      1.44150779944757     -0.21160171846503
  C   2.35618186950768      2.29065777894388     -0.16107099347350
  C   3.50288628606699      1.55886097420986      0.14340000484146
  C   3.16605529569434      0.20875254073404      0.27027437870979
  C   4.03833929438857     -0.85832976592317      0.51674784335576
  N   4.76067452958527     -1.74581893193211      0.72083630955730
  C   1.76008258067133      0.05444261721712      0.02291795253418
  N   1.26992093140380     -1.14516224643931     -0.06038397825725
  C   0.08643455686774     -1.71157715988059     -0.25716229464150
  N   0.18724178039171     -3.01949754292835     -0.63873856694665
  C   -1.22167520072459     -1.23045769602815     -0.03066202703512
  C   -1.78481677522438      0.02124514595621      0.04942865144916
  H   -4.42405684358447      2.02765800507842      0.17175458971000
  H   -0.09338492924229      3.02218051816186     -0.43795552800412
  H   2.31186164704299      3.35976045317356     -0.29515405410951
  H   4.49733620041429      1.95881002538695      0.25772832746621
  H   1.08747698397566     -3.45410518654957     -0.53087903089227
  H   -0.61910999094224     -3.61707078337075     -0.63318438601763
  H   -1.94651834913345     -2.02969397442087      0.09012437327669
