25
Coordinates from ORCA-job ./opt_b97-3c_parallel
  N   -2.45569547882327     -3.55340380964229     -0.00654122704785
  C   -2.49594460099067     -2.39254635036023     -0.00574302162779
  C   -2.59082707825890     -0.99561051172977     -0.00452591582574
  C   -3.76459254818930     -0.23256390654032     -0.00500411287540
  N   -3.53006380582695      1.08622930279006     -0.00352228023224
  C   -2.18401986073285      1.26432141749640     -0.00197125305673
  C   -1.73008757600188      2.56936275612696     -0.00022801836546
  C   -0.47484698422664      3.17126759063637      0.00172057478253
  C   0.82873231321753      2.71624193101261      0.00261491931929
  C   1.43329513871727      1.45906221261862      0.00189747146240
  N   2.77646129811673      1.43957868345898      0.00319746500483
  C   3.17314962715933      0.14446095377496      0.00222763843190
  N   4.46547995449307     -0.17853591375527      0.00322734174433
  C   2.07335050132982     -0.74455540129654      0.00023930731108
  C   2.17681778792417     -2.13646988905488     -0.00113809601610
  N   2.37538794332273     -3.28225879312744     -0.00212781037433
  C   0.90759269410444      0.05556552225120     -0.00007090269633
  N   -0.27426348910001     -0.51683613400183     -0.00179860253013
  C   -1.50725254038243     -0.07346367757338     -0.00256858089943
  H   -4.77404400582520     -0.61528867044803     -0.00638917729275
  H   -2.55874583080753      3.26721719850443     -0.00041618017449
  H   -0.53608803623943      4.25284816458942      0.00277134018790
  H   1.57563341903754      3.50074132312214      0.00420981517614
  H   5.15698753242841      0.54919463023588      0.00429964299103
  H   4.76208367885406     -1.13758558638806      0.00214485940334
