24
Coordinates from ORCA-job ./opt_b97-3c_parallel
  N   -4.63156845387005     -1.31855382646952      0.00040569426682
  C   -3.50171059217717     -1.05610351531497     -0.00008296201412
  C   -2.10052735777493     -0.76813323497075     -0.00068832751322
  C   -1.34532990622820     -1.97247264664577     -0.00147191013599
  N   -0.07217722047967     -2.28361135608266     -0.00227742942871
  C   1.05545352470368     -1.59892254274766     -0.00263586184157
  C   2.27116508023928     -2.32123759691669     -0.00356880103895
  C   3.35109944548885     -1.45339048985006     -0.00378343553668
  C   2.86572656153122     -0.13418894490028     -0.00300706080516
  C   3.64731133609499      1.02885944174805     -0.00301314182475
  N   4.31530949946781      1.97971665883699     -0.00348176313311
  C   1.43769257024097     -0.14839515885191     -0.00225753737375
  N   0.80432240606255      0.99681293794241     -0.00148737168036
  C   -0.46892210004127      1.32357553242488     -0.00074442828606
  C   -0.79522601591629      2.69572597340825     -0.00009038563910
  C   -2.17972761141822      2.85094433917235      0.00060391075010
  C   -2.77106988471172      1.58967431586397      0.00042363855135
  C   -1.77603346732156      0.58660476577035     -0.00039718397339
  H   -1.98141490046338     -2.85213465971570     -0.00141439286391
  H   2.30737890601793     -3.39812622323526     -0.00401661808668
  H   4.39371019543374     -1.72553385129060     -0.00444053078218
  H   -0.04623417968176      3.47036987427597     -0.00016509572634
  H   -2.71236768632367      3.78854370710218      0.00118553364807
  H   -3.83168463647317      1.39746883024642      0.00084919836769
