26
Coordinates from ORCA-job ./opt_b97-3c_parallel
  N   4.87671787340605      1.86694185035315      0.24268596423684
  C   3.81595344939531      1.40720277435719      0.14290113535320
  C   2.47291139923611      0.97585129428615     -0.04029364610534
  C   1.65337779303530      1.96666123341938     -0.64823184044611
  N   0.38181240392973      2.18507359494327     -0.57971707324170
  C   -0.71598811907553      1.57791947672598     -0.18596057715581
  N   -1.77490406871231      2.34630241252762      0.12765028884849
  C   -2.82627316057574      1.52390003011716      0.25485991536757
  N   -4.02459085495730      1.96243610206235      0.62178379123270
  C   -2.49951286757504      0.15887650856299     -0.05316873849705
  C   -3.46329875359236     -0.84835219982327      0.01541703661001
  N   -4.37442565560854     -1.56390534275378      0.12794325152192
  C   -1.11132274289325      0.13925334932192     -0.24958351886737
  C   -0.31748400448697     -1.01352538662056     -0.38400107835702
  C   -1.02491626138467     -2.19807581747216     -0.74696686416246
  N   -1.55412569490127     -3.16574309142349     -1.10641671138609
  C   1.03429619395991     -1.23366814500320     -0.07057132764978
  C   1.54320184215816     -2.52345927785274      0.13845964376863
  C   2.81988675909117     -2.37387577521388      0.67702904669543
  N   3.20421705196269     -1.09001725305889      0.77449299920553
  C   2.18414537921744     -0.34045459458049      0.30192041730016
  H   2.20791127929952      2.74185547853465     -1.17051136178617
  H   -4.15374390562206      2.93866498856030      0.82009710076840
  H   -4.81165180790435      1.34044503418113      0.68051170813933
  H   1.00905269008095     -3.44672746441244     -0.00416602472884
  H   3.47930528193749     -3.16418085473819      1.00447338432962
