28
Coordinates from ORCA-job ./opt_b97-3c_parallel
  N   2.22230830144200     -4.02129048678039     -0.04272083761357
  C   2.36296279083978     -2.86682085810675     -0.02414020322832
  C   2.53328164180936     -1.47870765295811     -0.00240892605068
  C   3.75619852287514     -0.78174116175987      0.01519592363198
  N   3.59787789247682      0.53626633270266      0.03339913610326
  C   2.24508625257123      0.78248640849130      0.02796698726511
  C   1.89373451231212      2.11089254124329      0.04484461532920
  C   0.70415137075883      2.86143746357611      0.03632852332333
  N   0.90866759748628      4.22555970772392      0.09175536807283
  C   -0.64120445560882      2.47939900391449      0.02582325258271
  C   -1.36632323973363      1.30171399868849      0.01082454822026
  N   -2.71915790992879      1.45198388625670      0.00550457498931
  C   -3.26118877350756      0.22782920373257     -0.00925324377105
  N   -4.58513078021181      0.03876311347865     -0.03498895135353
  C   -2.26843258237103     -0.79171564129561     -0.01499773684604
  C   -2.53753481243514     -2.15954019231930     -0.02446352539966
  N   -2.83301430126107     -3.28591351330286     -0.03025771348307
  C   -1.01878855508894     -0.13487917872220     -0.00210873672450
  C   0.17135375214790     -0.84416953860841     -0.00572131078187
  C   1.50827500454825     -0.49673916766573      0.00525919710300
  H   4.73964901749143     -1.22784501669230      0.01497952789122
  H   2.79009815538849      2.72094222294184      0.06992103083185
  H   0.14686422455806      4.82936341090996     -0.15943450662702
  H   1.81465806484902      4.57845638992845     -0.15839551805424
  H   -1.32594470793501      3.32038274616072      0.03507476516430
  H   -5.19286290869480      0.83175205735359      0.05793562125037
  H   -4.97537228582085     -0.88186528426952      0.04766398149280
  H   0.01721320894279     -1.91938784132175     -0.01935045411807
