26
Coordinates from ORCA-job ./opt_b97-3c_parallel
  N   4.50151025560867      1.23055117943803      0.00138243597220
  C   3.74944171671059      0.34447293118860      0.00008027503767
  C   2.85020370861476     -0.72933318593936     -0.00156368972037
  C   3.18370032489982     -2.10170043410185     -0.00360645117810
  N   2.10487345595258     -2.87574940938517     -0.00486012700000
  C   1.00997350398164     -2.05052763029037     -0.00362157721627
  C   -0.22244661426206     -2.68333767291474     -0.00464006176629
  C   -1.55008539073324     -2.28955061912923     -0.00373508317474
  C   -2.23651107741064     -1.06880153785944     -0.00147054953205
  C   -3.65389389524829     -1.28235241819889     -0.00098061614969
  N   -4.79476901665427     -1.48999782111766     -0.00042544637041
  C   -1.85748314955520      0.28650966586426      0.00034023368346
  C   -2.83371205883386      1.30288316939508      0.00204892532418
  C   -2.22689434924926      2.55096024148867      0.00337867177846
  C   -0.84086074257221      2.36858358752033      0.00257198990252
  C   0.10709730773745      3.40241873793852      0.00331436821860
  N   0.88745288738405      4.26351895013768      0.00359490230381
  C   -0.54495598760527      0.96697032191874      0.00074482144073
  C   0.77238698592553      0.56595222648567      0.00010588210654
  C   1.43588545075987     -0.65720734620546     -0.00149269436410
  H   4.17964273333522     -2.51692593073997     -0.00416016392894
  H   -0.09518106587805     -3.75905866745658     -0.00644343155571
  H   -2.22443955694810     -3.13515623270832     -0.00495092365624
  H   -3.89698550168369      1.13238268405021      0.00223295638906
  H   -2.72772368296926      3.50474965688896      0.00476397179839
  H   1.46063254509325      1.40632871273229      0.00108680525734
