29
Coordinates from ORCA-job ./opt_b97-3c_parallel
  N   -4.93970212703456      0.09679629266124     -1.15142161538656
  C   -3.97163418955138     -0.40833417623326     -0.75319674008961
  C   -2.82149434701745     -1.08593178967903     -0.32689167049139
  C   -2.70992831644981     -2.49545598892546     -0.24336526776501
  N   -1.50252734566483     -2.89700286648249      0.12148683483851
  C   -0.72344097769415     -1.77374323149659      0.22120174516607
  C   0.60249429748082     -1.97919717783164      0.51686449351876
  C   1.74597644602300     -1.20202853836062      0.36154098084670
  N   2.91461107328787     -1.84508376849953      0.46216043707356
  C   3.87581903249009     -0.98951888229429      0.00368657753753
  N   5.15254737875312     -1.38691599032563      0.00332253687333
  C   3.34544653962089      0.23981346707118     -0.40168371625597
  C   1.97382856891571      0.18885610993868     -0.14148725303780
  C   1.14787475119815      1.32069553473461     -0.23152235322283
  C   1.82792854529958      2.46353402183865     -0.73359637471840
  N   2.38264051821538      3.39701114861999     -1.14854527695056
  C   -0.17093064947584      1.62600513999946      0.24762391273137
  N   -0.35805589335780      2.92321257971120      0.60215016770929
  C   -1.31960520763678      0.78798509949869      0.30866565660200
  C   -2.47897135170225      1.48277331452946      0.74489238752440
  N   -3.35509714497655      2.11182227195465      1.17824204980498
  C   -1.54690011553317     -0.56641086177745     -0.01968372285667
  H   -3.49545381293732     -3.20104943519023     -0.47000778343403
  H   0.82658952935374     -3.00895085213143      0.76171896059149
  H   5.36905314632341     -2.32336105065894      0.29405320386499
  H   5.87589707016303     -0.83451245313152     -0.41625791111815
  H   3.89831155092449      1.09204042395308     -0.75641645636527
  H   0.39078613639643      3.58556419577987      0.51430897737346
  H   -1.28511000970492      3.30301924102940      0.68626793443535
