22
Coordinates from ORCA-job ./opt_b97-3c_parallel
  N   -3.29810161666167      2.77699769465283     -0.00875019533274
  C   -2.85720455638552      1.70200863850162     -0.00646627706369
  C   -2.35789319389828      0.39424109939801     -0.00375737600275
  C   -3.10282662231619     -0.80153100477002     -0.00197799094651
  N   -2.32523851969478     -1.88227333611254      0.00046453294733
  C   -1.02371707538582     -1.45592577403562      0.00042584830896
  C   -0.05167719599942     -2.43873872781590      0.00280367413827
  C   1.34477553979734     -2.46302617942837      0.00363037531778
  N   2.30476132199422     -1.55542333823727      0.00250057010890
  C   2.30133572612649     -0.23829485078072      0.00010436940382
  C   3.53416235897981      0.42851756025331     -0.00039926487871
  C   3.34365906138491      1.81712484750957     -0.00303550608194
  C   1.98540228999142      2.09159943120871     -0.00433060821949
  C   1.24706124445655      0.88314798301127     -0.00255475944710
  N   -0.05427484906482      0.95379932374937     -0.00344600753896
  C   -0.99155922643969      0.01756254503629     -0.00227314080714
  H   -4.17895617387449     -0.88502074966931     -0.00244397519976
  H   -0.49341699098381     -3.42837974209005      0.00438473886802
  H   1.74514802588603     -3.47272561008479      0.00570906571583
  H   4.47721917420297     -0.09376517624858      0.00109966217422
  H   4.13221560375418      2.55366290525978     -0.00391365442293
  H   1.51259355143096      3.06019333979214     -0.00637733144179
