26
Coordinates from ORCA-job ./opt_b97-3c_parallel
  N   -4.15234189045040     -2.62345918446387      0.10093949833499
  C   -3.15764771587665     -2.02797947004554      0.05351563840604
  C   -1.88809035373777     -1.38482765436473     -0.01976187848931
  C   -0.83428730023745     -2.29336563741001     -0.27673663313594
  N   0.46585043791109     -2.26518163332329     -0.17211609094975
  C   1.39336275716404     -1.34673291267850     -0.02658566585668
  N   2.64303956377201     -1.75370538225345      0.23357125776597
  C   3.44604267275241     -0.66782783071508      0.16056595805798
  N   4.75009776632579     -0.77495304798887      0.39363843980980
  C   2.74813390453734      0.51971995329796     -0.18164696091845
  C   3.32135981046489      1.78384102424604     -0.30981710546979
  N   3.86962521687781      2.80646055111537     -0.40222397057197
  C   1.38415467141562      0.16859980777718     -0.23355937676449
  N   0.45836546236878      1.08325173054632     -0.32981226094727
  C   -0.85455632852678      1.07156010976914     -0.17879238251108
  C   -1.56022650360796      2.26732726029218     -0.16559923780672
  C   -2.89595701018016      1.94579746367963      0.13291655882040
  N   -3.93118202824180      2.77148246578681      0.28061675191308
  N   -3.09303691828840      0.60597882735784      0.28928832989436
  C   -1.91721424127129      0.01100121336245      0.08839422992328
  H   -1.20257616151732     -3.27783325248206     -0.55541701076872
  H   5.13389368621553     -1.67323248132066      0.62814740045636
  H   5.36208196907625      0.01691658232643      0.31161815867085
  H   -1.12096903103413      3.23951101439756     -0.30832946947308
  H   -4.83486414958575      2.38489705881059      0.49111189092616
  H   -3.84474430042509      3.76091801558057      0.14569103208392
