25
Coordinates from ORCA-job ./opt_b97-3c_parallel
  N   3.04349851345409      4.02781783758132     -0.03110168454213
  C   2.36138888367331      3.08984005283794     -0.02436527352645
  C   1.40747422828494      2.02854302070543     -0.01525992476717
  C   0.07443658601279      2.52121151615186     -0.00968341272748
  N   -1.11790077724159      1.98074145007784     -0.00011977170306
  C   -1.60051394438274      0.75823060325044      0.00741531664675
  C   -3.00889858770652      0.59299092340406      0.01739567857472
  C   -3.93309450395711      1.64872061697091      0.02008583074921
  N   -4.72006512711876      2.50206202335847      0.02245905742983
  C   -3.33988805880650     -0.77447958779379      0.02399258181018
  C   -2.16811864750304     -1.52078895002237      0.01847696828660
  C   -2.08923087508377     -2.92097499508631      0.02242419040439
  N   -2.05097839373074     -4.08122777228639      0.02572852224691
  C   -1.03425030896007     -0.63898000056694      0.00820903783029
  N   0.15770639877939     -1.15385526752584      0.00255150253784
  C   1.36594149456673     -0.61829890068455     -0.00622580982014
  C   2.49607319637817     -1.47189898760862     -0.01014919334936
  C   2.48319507809838     -2.87096275919711     -0.00577592064986
  N   2.51664454661801     -4.03192162763740     -0.00233110599030
  C   3.63438527917992     -0.63765389676633     -0.01904018658840
  N   3.30906973868146      0.65233095859516     -0.02102058499522
  C   1.94985636293193      0.74412063694818     -0.01369597996189
  H   0.03616676221977      3.60539788913163     -0.01399366929796
  H   -4.33999289263547     -1.17370688877655      0.03198098665975
  H   4.66522466014770     -0.95597010116196     -0.02388275415593
