28
Coordinates from ORCA-job ./opt_b97-3c_parallel
  N   -5.67903585044929      1.46288427437581     -0.91256560487700
  C   -4.82097810128130      0.73041764085319     -0.63589885097569
  C   -3.80317800575092     -0.17206881550796     -0.30717102503296
  C   -3.91590550997764     -1.56473324128266     -0.15634629787200
  N   -2.77169586217606     -2.14370051249766      0.22843189512441
  C   -1.83446400676405     -1.16371933223212      0.30819121122364
  C   -0.51995615482417     -1.55495541548071      0.42542900589249
  C   0.70232201848873     -0.91260681312452      0.25040926750011
  C   1.87025758018683     -1.69647231442131      0.14714617113435
  C   1.98029119997885     -3.08420725750315      0.27443243708797
  N   2.14278856037672     -4.23200162337592      0.36933983860520
  C   2.97204871014103     -0.86355194717423     -0.18173784210873
  N   4.21769405424740     -1.26452968889966     -0.41100116889085
  C   2.50211468694199      0.47206969744160     -0.23569015274689
  C   3.38131303100762      1.49558897231583     -0.60954330212564
  N   4.23233128770926      2.20061483441447     -0.97167447406095
  C   1.11776520398935      0.49619836320261      0.06170773603280
  C   0.41791634873942      1.68333192208666      0.33174696369238
  C   1.20557411548014      2.85541942000302      0.52766149375850
  N   1.76805305944203      3.84282416432025      0.76378144285497
  C   -0.95955479695296      2.00283363888523      0.47363949679970
  N   -2.08293916178846      1.39845599892391      0.19901719184116
  C   -2.46595863864073      0.15610305618041      0.03650807526935
  H   -4.80976947768196     -2.15051617193397     -0.30779307000476
  H   -0.43890781042202     -2.62950872548707      0.54599224520888
  H   4.46771182198026     -2.23668029442782     -0.36247554562452
  H   4.93275112739272     -0.60084738768687     -0.65698747547378
  H   -1.11102110889535      3.03314534523624      0.78091258316634
