28
Coordinates from ORCA-job ./opt_b97-3c_parallel
  N   3.86571502488111     -2.45931727224576     -0.44316054185342
  C   3.25140662460209     -1.48847993446242     -0.26583506962312
  C   2.64531380825972     -0.23256317684004     -0.12366066144854
  C   3.38897415188335      0.97265623326973     -0.25595847043481
  N   2.63837687748859      2.04813510397364     -0.19397034787128
  C   1.32665636978203      1.61739420888778     -0.05367131143009
  C   0.42234632788412      2.64223616143610      0.02769748271655
  C   -0.97799440529598      2.79965683548158      0.06272721836959
  N   -1.38638402870847      4.12479082426461      0.13492019270250
  C   -1.99165567570644      1.86797356392982     -0.09564722651945
  C   -2.08571228321067      0.47962708809281     -0.13394991991893
  C   -3.33415612908472     -0.12537286327241     -0.26466380464292
  C   -3.14252010335628     -1.50804912455711     -0.07837517609729
  N   -4.07121390638211     -2.48024903429069     -0.08618509056239
  N   -1.85424807692902     -1.80982205728971      0.16609922045959
  C   -1.15080132554452     -0.65862695088255      0.11350930480274
  C   0.23901394025867     -0.77125204698122      0.24952276250676
  C   0.63688674104988     -2.07749525285538      0.67088567329686
  N   0.96970411201485     -3.10000468063440      1.10516325461122
  C   1.29334566153747      0.14139276888431      0.01743532926598
  H   4.45711388788981      1.03024029879769     -0.40639237992222
  H   0.95468176856305      3.58675061958205      0.00113128571898
  H   -2.32636581899251      4.29398432720961      0.44679985082873
  H   -0.72586089927026      4.78063924628544      0.51295876453546
  H   -2.96864192205480      2.33270727582400     -0.19138539638982
  H   -4.26983927520800      0.38840341430379     -0.41826528191592
  H   -3.74594432774890     -3.43069145765322     -0.05066549144431
  H   -4.97759543240200     -2.31585043655807     -0.48145602284044
