22
Coordinates from ORCA-job ./opt_b97-3c_parallel
  N   -2.96871665051579     -3.41646850394492      0.02161891114266
  C   -2.14245088580960     -2.60267778871627      0.01218313175702
  C   -1.01914397674205     -1.72123559223610     -0.00730971333506
  C   0.21095374373084     -2.44957385381474     -0.07146713178244
  N   1.47558717911893     -2.14418846715651     -0.04420328936861
  C   2.16300882067892     -1.00716576253072     -0.00724374961735
  C   3.54765639342686     -1.05224581737149      0.05099071569734
  C   4.01171076980918      0.27883301185198      0.04441999202996
  N   3.03530039236237      1.17953188144996     -0.01617775938647
  C   1.85111969703899      0.48989933665635     -0.03785157700150
  N   0.76806850542640      1.20201685661718     -0.04804937080509
  C   -0.51520775021822      0.87748190029423     -0.01899427680916
  C   -1.48065224503558      1.90427363761043     -0.01235255853199
  C   -1.23581442049117      3.28204963370465     -0.04670801616431
  N   -1.08285053717278      4.43295638673445     -0.07442750136997
  C   -2.74890327991391      1.27567484916026      0.05190852691783
  N   -2.65616621051591     -0.04494717636676      0.08141840872075
  C   -1.32769323383145     -0.37035550750190      0.03337161217813
  H   0.04177044245495     -3.52024903822810     -0.13325441536313
  H   4.13082131250545     -1.95799782727759      0.07957710832559
  H   5.04371128448159      0.59875179651928      0.07561874187304
  H   -3.70725432908846      1.77169382914674      0.07819067999259
