24
Coordinates from ORCA-job ./opt_b97-3c_parallel
  N   5.15268793196456      0.99314691470729     -0.03419309273016
  C   4.16178668690283      0.38656622243488     -0.02366419693346
  C   2.98659340341457     -0.37447709027579     -0.01131486112876
  C   2.88244229157827     -1.76790930802370     -0.00669557549436
  N   1.61229501492488     -2.19716272868669      0.00726805894167
  C   0.81001821122505     -1.10202709136337      0.01202444058313
  C   -0.55056634145928     -1.33579264778885      0.02062804761378
  C   -1.67590895526157     -0.52185649108173      0.02362152674399
  N   -2.87281653954568     -1.13493454850785      0.02669146123238
  C   -3.81810049880530     -0.15978165405296      0.02046734955597
  N   -5.11833408871771     -0.49609493238098      0.04764564006036
  C   -3.25039598835234      1.12521796317358      0.01520055617126
  C   -1.86751889209798      0.95197141153747      0.01571299643561
  C   -0.98734260275351      2.03011405461727      0.01606816565341
  C   0.39306147240216      2.20952983021344      0.01414856807802
  N   1.46412592124422      1.43452079068414      0.00487677374160
  C   1.65612067574987      0.13691626906289      0.00160731611901
  H   3.70251838505426     -2.47019585591341     -0.01298745321954
  H   -0.79435571896340     -2.39075218200014      0.02606267325887
  H   -5.83143746536781      0.18785184718829     -0.11967616294687
  H   -5.35851570882351     -1.46377412657090     -0.07361078771966
  H   -3.77120528911265      2.06932488326369      0.01487004907026
  H   -1.50471763004665      2.98436666951675      0.01743743291411
  H   0.66835311334638      3.26128656664755      0.01810076069911
