26
Coordinates from ORCA-job ./opt_b97-3c_parallel
  N   2.54010359085487      3.57109274120800     -0.00178001755939
  C   2.59338178654117      2.40953636988855     -0.00073919311392
  C   2.66037130657214      1.01146415674363      0.00015830636302
  C   3.83557981183277      0.22316382328266      0.00084216166787
  N   3.57576048001180     -1.07613276657102      0.00154376315769
  C   2.20772422905539     -1.21375328700034      0.00136401221510
  C   1.71809952997749     -2.50173226345947      0.00219230997820
  C   0.45092027539292     -3.10369803099830      0.00237495363594
  N   -0.80064284156174     -2.70672707879861      0.00150840705725
  C   -1.40692826434589     -1.52574264955548      0.00031221645982
  C   -2.80357212795270     -1.52349661350140     -0.00048594961169
  C   -3.28734404085406     -0.20800527080915     -0.00146738198996
  N   -4.56601928690932      0.19051231248591     -0.00272346938789
  C   -2.16655317650287      0.66794181143527     -0.00128199099881
  C   -2.29754607133489      2.05854449019744     -0.00192324740235
  N   -2.48433880647652      3.20760771369522     -0.00240751767962
  C   -0.96873165374953     -0.08834852016431     -0.00026394443479
  C   0.25326799778617      0.54681307314409     -0.00014765238581
  C   1.57295523626654      0.10987074878061      0.00046659574415
  H   4.84879955188558      0.59644611922108      0.00081628939379
  H   2.52382869688073     -3.22628370619694      0.00290636737474
  H   0.52232689845431     -4.18890078877401      0.00338652738734
  H   -3.39297183854270     -2.42534875867901     -0.00029975877888
  H   -4.80153123516974      1.16700908436045     -0.00208133329694
  H   -5.31798386903935     -0.47172339769209     -0.00130647293388
  H   0.17063487012743      1.63000514595723     -0.00078944956097
