26
Coordinates from ORCA-job ./opt_b97-3c_parallel
  N   -3.35225604205069      3.08335082964363     -0.53727962582037
  C   -2.38410990904610      2.46382932443444     -0.37533142792777
  C   -1.19225237818087      1.70281724123521     -0.18834584848838
  C   -0.05048835972937      2.49582641421046     -0.24252355840001
  N   1.21902512614513      2.30738196887798      0.08457790948190
  C   2.02567509035458      1.29411464331004      0.17054056645763
  C   3.39350198841869      1.53777860092621      0.50302822514681
  C   4.11763959857046      0.39365051163119      0.28131229409683
  C   3.25196553375209     -0.64113176915908     -0.15226133755076
  C   1.94241294568337     -0.18016744752146     -0.18987128113067
  C   0.84230348578789     -1.04850764326659     -0.29028957749098
  C   1.19691248421185     -2.41424020079296     -0.53577081231984
  N   1.57680937140288     -3.48437538802506     -0.76985554075217
  C   -0.53215540538850     -0.86581543291337     -0.08314122089829
  N   -1.27833126455138     -1.99135277512172      0.01777233200383
  C   -2.54496389191410     -1.61011557200232      0.24860466534597
  N   -3.50892068233568     -2.52205518866040      0.45742638067454
  C   -2.67538917580377     -0.20087513206842      0.26551891601774
  C   -1.40865656411293      0.31970084397574      0.05444846739850
  H   -0.25598019291206      3.53213541573702     -0.49216723141253
  H   3.76015245478044      2.51244897398871      0.77720375960292
  H   5.18453677977598      0.28562728808260      0.40261349761792
  H   3.55589877118288     -1.65368172699725     -0.35842308132946
  H   -4.47438211649962     -2.25309764457571      0.46822650177063
  H   -3.29273286668925     -3.48724419183937      0.28111119382070
  H   -3.58421189114858      0.36492402180232      0.38555131388268
