25
Coordinates from ORCA-job ./opt_b97-3c_parallel
  N   4.77141241952721      1.55148310628752      0.07846058359564
  C   3.93341204393629      0.74723915313245      0.05201363900221
  C   2.97062225546467     -0.26758919868820      0.02130976246373
  C   3.22298971209992     -1.66668078465717      0.00068169948879
  N   2.11768779799606     -2.38321756891797     -0.03425147617498
  C   1.05265088888812     -1.49420312752853     -0.03193145483281
  C   -0.17921969428132     -2.07580649800567     -0.06076880231848
  C   -1.53532662770408     -1.66679457229572     -0.03960949707469
  N   -2.40099515375102     -2.72260858525245     -0.08812426587029
  C   -2.09465433638628     -0.36713534588748      0.00585116522347
  C   -3.51615802766282     -0.39130178414999      0.07317816184363
  N   -4.67329578706972     -0.47544054171654      0.13425303973186
  C   -1.56398924674506      0.94464119633515     -0.02100115901033
  C   -2.39839707945347      2.05267374000694     -0.02540344957802
  C   -1.58069833108142      3.20002169409887     -0.04435666939287
  N   -0.28573937610119      2.92772239360683     -0.04207240250574
  C   -0.16399883027466      1.55927082057445     -0.02809202822522
  N   1.04788555249062      1.10526989282218     -0.00870767192594
  C   1.57304592523625     -0.10795711612454     -0.00009625376143
  H   4.19680186315962     -2.13364222375286      0.01051551069373
  H   -0.06697283279772     -3.15366558097788     -0.09974084996822
  H   -2.05451298202337     -3.65076998077774      0.06264259824433
  H   -3.38925076009889     -2.58966111468158      0.03493177023325
  H   -3.47562456815373      2.04457065889685     -0.02267673592939
  H   -1.92596818446164      4.22441344135462     -0.06120708903798
