26
Coordinates from ORCA-job ./opt_b97-3c_parallel
  N   -3.77123458426225     -3.25857895659590     -0.12176716347085
  C   -2.85522401633240     -2.54737861201606     -0.08875500650644
  C   -1.62954228197612     -1.81371490088757     -0.09849450552524
  C   -0.51819970458200     -2.68745018730602     -0.30114845061490
  N   0.76370415944913     -2.58617620155225     -0.14073173682245
  C   1.61201621285790     -1.57854662169085      0.05219160729645
  C   2.94549329953749     -1.85208479329746      0.30912470018737
  C   3.63507827406773     -0.62138811377115      0.23386442165701
  N   4.93714250705343     -0.39511602061600      0.41054305213113
  N   2.81144956873677      0.40483263122669     -0.08433968615096
  C   1.56430643227977     -0.08648078335220     -0.14476441409162
  C   0.52137214955915      0.83940019749134     -0.29777426842838
  C   0.98563318826622      2.12623472587627     -0.70360311866541
  N   1.35517677104755      3.13680041124037     -1.13594943600205
  C   -0.85847918258055      0.72248639805246     -0.03136672004851
  C   -1.71438488374081      1.82565058067536      0.16666829077995
  C   -1.45035204403108      3.19965906135361      0.25468347843332
  N   -1.35800110762053      4.35025745510219      0.38821178574550
  C   -3.00392693848671      1.29537162670008      0.43669390837583
  N   -3.03400536973211     -0.02139185939532      0.39306502443967
  C   -1.76212025287016     -0.44848240612500      0.11968275705445
  H   -0.83246759212452     -3.69582423356123     -0.55435174111857
  H   3.35404438044179     -2.83946610083742      0.44271142504572
  H   5.56893150833562     -1.11966339645054      0.69387493381846
  H   5.28918397613232      0.53973801305002      0.29829875546343
  H   -3.88331663312638      1.87697273338739      0.66967193941823
