24
Coordinates from ORCA-job ./opt_b97-3c_parallel
  N   -4.32575779783168     -2.39516439162976      0.52999255223530
  C   -3.70501358542756     -1.43652041883846      0.31747511624906
  C   -3.01407623037171     -0.24818669214269      0.05542805730777
  C   -3.59758334631277      0.99168792647556     -0.34358999282185
  N   -2.70553609357174      1.93200442796832     -0.56399589645539
  C   -1.46112837952318      1.38257486437790     -0.28802669382590
  C   -0.42278796443279      2.25432002558360     -0.24690590281616
  C   0.95548281434371      2.11037318676578      0.11914206926595
  N   1.57032840339637      3.26532762719605      0.47174308893012
  N   1.75687810679996      1.07480955326233      0.04840984552695
  C   1.62016067543167     -0.22673991594698     -0.01689967148944
  C   2.73438421497557     -1.06171512643546     -0.19718981271142
  C   4.04968099028513     -0.63706300097305     -0.41042741547522
  N   5.14441034697229     -0.28712851749022     -0.58423513310444
  C   2.27727044463088     -2.39304402568515     -0.00935290108264
  N   0.98450441829961     -2.48393433111892      0.25256396209370
  C   0.47041341606194     -1.21387819142073      0.21391815026653
  N   -0.81684318774954     -1.08977101875478      0.28316664379016
  C   -1.62497509676785     -0.05825579522966      0.07187466583493
  H   -4.65422531813516      1.17590384955853     -0.47232415518817
  H   -0.71985742633156      3.26492383858567     -0.50170726726259
  H   1.05886201578282      4.11052028763551      0.64265222316741
  H   2.54972610925026      3.23401899108060      0.69565926628579
  H   2.89840720932600     -3.27625406662413     -0.05340744292075
