27
Coordinates from ORCA-job ./opt_b97-3c_parallel
  N   2.83420312672070      2.90463609496871     -0.15502847029184
  C   2.01107069869769      2.08781089670636     -0.08547281397963
  C   0.86601832944268      1.23680069099994     -0.01049822914074
  C   -0.36561585641980      1.95845446749660      0.06707036938267
  N   -0.25023614820752      3.33002424899020      0.18973106028279
  C   -1.69344461890614      1.51536039685439      0.06669725360584
  C   -2.39725359081724      0.32590099166219      0.00892239352858
  C   -3.80563586394684      0.32424068343450     -0.00800389376186
  C   -4.20925845262853     -1.00579364838197     -0.04902980189915
  N   -3.17961907151604     -1.86844476571504     -0.05245949705282
  C   -2.04319043908065     -1.11275094857810     -0.02045270521024
  C   -0.84821854641256     -1.78638454650436      0.00246313701332
  C   0.49359599306616     -1.41239007135439      0.01667071600829
  C   1.49503794420878     -2.38051053456756      0.01391124400616
  C   2.72575941116813     -1.69508129600707     -0.01606963570655
  N   3.96448254240404     -2.22450423574521     -0.06543854619371
  N   2.55675786857540     -0.36170869049201     -0.03317828084271
  C   1.22512546796931     -0.11898124402395     -0.00889617725038
  H   -1.04845273874202      3.88018040101952     -0.06872110942729
  H   0.63491237107359      3.76104422576862     -0.01537215848839
  H   -2.37883900152793      2.35575813436885      0.12841457052464
  H   -4.43598730791329      1.19943615593440      0.00822761876349
  H   -5.22514740233233     -1.37427675922274     -0.07555034345275
  H   -1.00335916777235     -2.85955356513354     -0.00368368783605
  H   1.33777457003474     -3.44715947791260      0.01593360365335
  H   4.10776281168605     -3.18572745570363      0.18107791464026
  H   4.73710959607596     -1.59674227526211      0.07303204712473
