30
Coordinates from ORCA-job ./opt_b97-3c_parallel
  N   5.48929691267428      1.07123065569425      1.38380296379637
  C   4.65259419156561      0.35463397976838      1.01288118627385
  C   3.64396167215733     -0.50145215520523      0.56118193621692
  C   3.71759828474656     -1.88562659722911      0.33629801382356
  N   2.60384379489921     -2.40220126103951     -0.20609662616208
  C   1.71661742400900     -1.38342402867715     -0.32042928348751
  C   0.39768007056472     -1.67315298192525     -0.58224816376709
  C   -0.78506180207824     -0.97282150719543     -0.36230426678997
  C   -1.99976836374403     -1.68818684737986     -0.32047873437303
  C   -2.20562493287021     -3.03457107268940     -0.62933282298519
  N   -2.44690370816768     -4.14557185187269     -0.87765711065607
  C   -3.02003690948085     -0.85629968366632      0.21803377174102
  N   -4.27493517230114     -1.22306918558597      0.45906648831332
  C   -2.46287273338116      0.41729420351298      0.46640413239984
  C   -3.24672090354251      1.41845855072846      1.04840446791512
  N   -4.01587691962950      2.11673074961235      1.57249163322784
  C   -1.10409204290072      0.42253415222191      0.04699798542770
  C   -0.38832779818800      1.59892562495794     -0.16880297865366
  C   -1.08861671031429      2.82756369367006     -0.06943181538757
  N   -1.57991482487453      3.88102744713641     -0.07811995576931
  C   0.98997872117196      1.79413506236385     -0.57513031250829
  N   1.26872638519340      2.87848301099093     -1.32743965639429
  N   2.04411218081856      1.13203640588998     -0.15850532060085
  C   2.36843845173681     -0.10417406550520      0.07572200112922
  H   4.56861572000588     -2.51501771198133      0.54924453690280
  H   0.25526002692676     -2.72071695931479     -0.82268745826128
  H   -4.58813294101924     -2.15788789671831      0.26537356300967
  H   -4.92437487311264     -0.57999914236455      0.87908158355166
  H   2.23006487922308      3.17022846399143     -1.37517400510368
  H   0.56188824040877      3.56308852371236     -1.53239646632883
