26
Coordinates from ORCA-job ./opt_b97-3c_parallel
  N   -4.06339706835392      2.41276522557607     -0.00020056934936
  C   -2.99849370698971      1.95131515114167      0.00372609441603
  C   -1.68487062344792      1.39059345225091      0.00721567014435
  C   -0.69984859017351      2.40947466706773     -0.00094127990065
  N   0.61077384600346      2.46795516319306     -0.00034908686057
  C   1.58300164345905      1.57712034463426      0.00422101898710
  C   2.91540153324055      2.03009391789066      0.00267589516624
  C   3.79184616942827      0.95346968114331      0.00503805740880
  C   3.05635363465154     -0.24211220792271      0.00848005268474
  C   3.58405533503097     -1.53938238969085      0.01115425314811
  N   4.03633680395801     -2.61036458271514      0.01301296287199
  C   1.66146916564866      0.06273701988929      0.00901120946926
  N   0.80589625705323     -0.92062102944773      0.01481396571388
  C   -0.51193256355092     -0.99502392894099      0.01920603694362
  C   -1.08815411937909     -2.26522961090698      0.02621058490805
  C   -2.49307710487518     -2.14702188678464      0.02741522045125
  N   -3.37138795679932     -3.16584212484810      0.05609063811090
  C   -2.81984133554355     -0.77687724612265      0.02408243923292
  C   -1.65300251154650     -0.00936692461356      0.01773169007051
  H   -1.14763455986599      3.39912050803434     -0.00838634840040
  H   3.17737934386740      3.07498476043669     -0.00072206580707
  H   4.86855092194794      1.00925083830259      0.00417887533686
  H   -0.51064034760596     -3.17513898851191      0.03096768520441
  H   -3.05940582257857     -4.11201322356170     -0.05861583321654
  H   -4.35378501331462     -2.99653059727252     -0.05609123681117
  H   -3.82262632546479     -0.38095447382080      0.02653638457669
