28
Coordinates from ORCA-job ./opt_b97-3c_parallel
  N   0.66511107568604      4.29914661732564      0.22767910840650
  C   0.28155346619676      3.20611606057836      0.13328866590816
  C   -0.23936632415791      1.88579387170961      0.03116087890059
  C   -1.65613918995851      1.86581049085284     -0.04437880158376
  N   -2.28820927269577      3.08913331820015     -0.12181516008654
  C   -2.56102627053957      0.78612302216122     -0.09663193867265
  C   -2.51956732110619     -0.58149380982977     -0.03310154366311
  C   -3.71149993272430     -1.34287786835161     -0.04356122007949
  C   -3.33787620530084     -2.66829702820874      0.06104972887894
  N   -1.99571542377725     -2.84519001650968      0.12013563723531
  C   -1.43528458769993     -1.62133578911151      0.06638794297983
  N   -0.12338464257840     -1.56467679482033      0.06446546143206
  C   0.76752233801092     -0.61563951315594      0.01254718963780
  C   2.13278266639953     -1.00598694568994     -0.00416092030461
  C   2.64114850760137     -2.30524005349721      0.01175183605270
  N   3.18366479372130     -3.33482610080495      0.02165886365340
  C   2.94982866968416      0.14669747468560     -0.03816604470002
  N   4.28664482671026      0.13991498868566     -0.07466539526506
  C   2.11649871420234      1.27994213566528     -0.03388528530648
  C   0.77604511359868      0.90200360335175     -0.00953607288253
  H   -1.76872443617807      3.92609349431431      0.07914424222113
  H   -3.25563580111792      3.12826727113187      0.14107210693861
  H   -3.58238257176134      1.14183775389344     -0.19602947582618
  H   -4.71231840725767     -0.94483968980089     -0.10683661318734
  H   -3.99291661807385     -3.52687903297502      0.09566272254685
  H   4.81395577537516      0.99247154976239     -0.07386632965331
  H   4.79281251419031     -0.72803181949272     -0.06058869138270
  H   2.47839027865069      2.29435124753020     -0.05330999119811
