25
Coordinates from ORCA-job ./opt_b97-3c_parallel
  N   5.34675645813572      0.68185183561529      1.07432890016929
  C   4.35761200241425      0.16621053295562      0.74873559985789
  C   3.17378915422054     -0.47387110219041      0.36598254232107
  C   2.95348444380147     -1.85396386481554      0.24337336712415
  N   1.72945365463827     -2.16012045941814     -0.21240180739016
  C   1.06424284129942     -0.99096393132962     -0.37703736814218
  C   -0.30678351512620     -1.04346275033313     -0.53402905569895
  C   -1.29333205152885     -0.08339488581513     -0.36803729829570
  C   -2.63331272580579     -0.43625061999266     -0.17088769063169
  C   -3.21058993598277     -1.70214258805433     -0.28512780130735
  N   -3.75429822942891     -2.72853036313187     -0.36430986090136
  C   -3.36454633497008      0.71828497591411      0.28753670089080
  N   -4.66540400741698      0.68968182702151      0.59343919949677
  C   -2.49679836192501      1.80652892661222      0.32183952051078
  C   -1.22958976959235      1.40433725011600     -0.12521618063498
  N   -0.31730420892969      2.29494662122677     -0.43884510218020
  C   0.96213278857153      2.24101587840045     -0.75612565552609
  N   1.93465220555501      1.42820428705230     -0.39785559763717
  C   1.98818575380600      0.15597078252999     -0.09973916677360
  H   3.66818529171161     -2.63140410858441      0.46835183185494
  H   -0.66802703721521     -2.06119455232754     -0.63203324107160
  H   -5.19462661864201     -0.16111279842454      0.51820527664378
  H   -5.13233824520103      1.49821814140538      0.95881634411391
  H   -2.75575341100288      2.82795017623908      0.54394667100751
  H   1.31347452581386      3.12784139603256     -1.27645413399966
