27
Coordinates from ORCA-job ./opt_b97-3c_parallel
  N   4.73848533801750     -1.31357893039959      0.57085924431585
  C   3.97465843301582     -0.47492713933714      0.31802906555654
  C   3.08810472735406      0.56137771321234      0.01061958380251
  C   3.41851903314862      1.80917167272586     -0.56951028131997
  N   2.37808953744664      2.61154889008685     -0.78617213737283
  C   1.27802999627454      1.94010580861008     -0.34699781983382
  N   0.16792638197484      2.58141807494670     -0.20230286142619
  C   -1.07772519913069      2.33141110843678      0.15648805126619
  N   -1.68635746864833      3.36529370165543      0.76442346844164
  C   -1.88764713082742      1.18440809122947     -0.15949770209169
  C   -3.26735970444137      1.46707529092462     -0.32144333120290
  N   -4.37664969790882      1.79948719734025     -0.41505743609700
  C   -1.53168390684692     -0.16098327128538     -0.21162024550659
  N   -2.50972861675936     -1.05399107070581     -0.44089937674622
  C   -2.00976935675965     -2.27702872477138     -0.18828013382552
  N   -2.74889307345806     -3.37056563664845     -0.32532508755334
  C   -0.64361231485601     -2.23117093506091      0.22084422487876
  C   0.13384413132927     -3.35245920315179      0.50880693735044
  N   0.68651768282029     -4.35024554312878      0.73687065374639
  C   -0.25297537610333     -0.88240993679961      0.16461876503538
  N   1.01209043440242     -0.56049924933088      0.34042374797786
  C   1.68116776014193      0.53171519308698      0.09004781640462
  H   4.41837909353196      2.12491764391573     -0.83132600151491
  H   -2.66549999285647      3.33932816319376      0.98969867225148
  H   -1.20952824923844      4.24991939675396      0.78172943072697
  H   -3.69989759166174     -3.28777711027394     -0.63969601318308
  H   -2.37385958886076     -4.28124557382417     -0.12754023217926
