26
Coordinates from ORCA-job ./opt_b97-3c_parallel
  N   -3.96462025513717      2.93925271710448      0.00405136592307
  C   -3.64467854358905      1.82097065128453      0.00343792593961
  C   -3.22889732834406      0.48507784531687      0.00238490741823
  C   -4.03803526385680     -0.66357563998856      0.00201525069458
  N   -3.32433460298710     -1.79036207708179      0.00093646430194
  C   -2.00562016555705     -1.43552123914875      0.00060696571163
  C   -1.08195934243740     -2.46896853674885     -0.00086901304796
  C   0.30730775171306     -2.57532024560609     -0.00153874214439
  N   1.33464736426312     -1.74337310399922     -0.00049441019401
  C   1.47378532028939     -0.43862209575169      0.00092070075690
  C   2.78910963312334      0.08788357850341      0.00182659259341
  C   3.98211676848869     -0.64027207529271      0.00150418052602
  N   5.02820301779755     -1.14841053967121      0.00110633445702
  C   2.73816617680769      1.50466406423979      0.00283267903538
  N   3.80491454470945      2.31370391142473      0.00407585238502
  C   1.38379566665981      1.88637838305419      0.00257687832746
  C   0.56393968515641      0.75779069736720      0.00156324674430
  C   -0.81556450240605      0.90488216742071      0.00176957883307
  C   -1.88273710075639      0.02737236711125      0.00154167494489
  H   -5.11733749535168     -0.68369146759862      0.00250348833276
  H   -1.57721059363780     -3.43266964749214     -0.00167142998717
  H   0.63948668112188     -3.60991404462135     -0.00303270924137
  H   4.73531112556052      1.93485023743504      0.00322695587400
  H   3.70552898505519      3.31101317813915      0.00347191480721
  H   1.02474983456917      2.90421902887907      0.00325709013852
  H   -1.12479152415484      1.94602707292061      0.00247844976985
