25
Coordinates from ORCA-job ./opt_b97-3c_parallel
  N   4.64914985659106     -0.93097671481027      0.51770690895489
  C   3.74027275192701     -0.22218735970191      0.35734110207136
  C   2.62420579951088      0.59701611399503      0.16203495944571
  C   2.59764773330673      1.99150927607335      0.02226913473314
  N   1.36341858527415      2.45868538705026     -0.17982550239103
  C   0.51753855402929      1.38581916170742     -0.17139864182851
  C   -0.83663859075615      1.65851660458272     -0.28354429814197
  C   -1.97789492216671      0.89322676731666     -0.16227103656761
  C   -3.24096847889516      1.48883116913917     -0.10434099111025
  C   -4.21003377759340      0.52698411167775      0.23458927067574
  C   -3.60037523899987     -0.70397117511516      0.37915040746818
  C   -2.20923450113050     -0.57615142078890      0.11273055551598
  N   -1.48198626291790     -1.65632956843328      0.05189161376645
  C   -0.20364588429825     -1.95132641223256     -0.17371584894046
  N   -0.02937971396205     -3.27435565635120     -0.51579705894677
  C   0.97377330361335     -1.19728085857989     -0.02976642833777
  C   1.27376662578906      0.14831791990378      0.02527438569759
  H   3.44805512118369      2.65474893386516      0.06607250892011
  H   -1.01619128369175      2.71886492359256     -0.42376777601585
  H   -3.42292115631776      2.54178359189306     -0.25431957029321
  H   -5.26412560256357      0.72536771275921      0.35420913899165
  H   -4.07152853726316     -1.64855609253519      0.59407594440729
  H   -0.79756227607101     -3.88224899169994     -0.28979058726061
  H   0.88698136895446     -3.67995348675723     -0.44493475761840
  H   1.85849243644707     -1.82222137975117      0.04619787970309
