26
Coordinates from ORCA-job ./opt_b97-3c_parallel
  N   2.48007381575635      3.64687763966504     -0.21885716136709
  C   1.81501597611457      2.69722036191990     -0.16727205047221
  C   0.99892262084135      1.52674109659605     -0.11282824936455
  C   -0.36392581900666      1.84941949636137     -0.19281303705439
  N   -1.50315360824260      1.19732033341950     -0.05395058806302
  C   -1.88229613926397     -0.04805612000089     -0.00845965966514
  C   -3.27617554702151     -0.34023541720959      0.15705236175056
  C   -4.27720364458436      0.62284855882931      0.34084020654749
  N   -5.12497902179510      1.40219217778342      0.49580891121017
  C   -3.46628733963078     -1.71950878128289      0.04954677744941
  C   -2.23478629185670     -2.33862524282656     -0.16690859759320
  C   -1.21101416556377     -1.38210971576518     -0.18322675174193
  C   0.11472544129899     -1.76275745574137     -0.21622671622916
  C   1.32927741440196     -1.10011943997845     -0.09052517490644
  N   2.42898673060771     -1.88401179378279     -0.03606748212906
  C   3.49136450450964     -1.06327823262896      0.12784904774959
  N   4.72649858314735     -1.57448776682242      0.25936113475076
  C   3.11078300594756      0.29250429439575      0.16344738171684
  C   1.72859611473137      0.32239511466122      0.02176412491610
  H   -0.52804210730852      2.91318049254578     -0.33595819237903
  H   -4.42056639768652     -2.21622419286316      0.11978179880462
  H   -2.07713065430261     -3.40055136604059     -0.27067949625843
  H   0.26667626745983     -2.83362520818562     -0.29188730499188
  H   5.53392656730537     -0.98139531012742      0.22993903822876
  H   4.85715308145913     -2.55496751339635      0.08621052669918
  H   3.76157041868318      1.14477408867249      0.26332572619153
