28
Coordinates from ORCA-job ./opt_b97-3c_parallel
  N   2.82279723087283      3.04787251955646     -0.58719999275509
  C   1.97384272152224      2.28342802184443     -0.38019953847240
  C   0.86574548255602      1.40568626898006     -0.19254989786128
  C   -0.33977171080494      2.13507706607050     -0.19809586602972
  N   -1.61164326449185      1.89474791515401      0.03306253224074
  C   -2.37667127455213      0.82765516636277      0.06944694904345
  C   -3.73974046566301      0.96359214208884      0.35113782565359
  C   -4.37646768285889     -0.26894736779639      0.15252347764142
  N   -5.68624030867914     -0.52886253368876      0.33111503499980
  C   -3.40684193909323     -1.22731239179863     -0.24398487129960
  C   -2.15372286951444     -0.63356952015058     -0.27115971072442
  C   -1.00732610128316     -1.39482931137326     -0.41565757182285
  C   0.35128693871131     -1.16995166159716     -0.25598057409867
  N   1.13296268823721     -2.28547406861482     -0.24775453108312
  C   2.38123660469313     -1.88762648889423      0.00949335455675
  N   3.40044570818064     -2.74719546603007      0.11532655199984
  C   2.47753117049356     -0.46688926491053      0.14092507823418
  C   3.68596387726532      0.14736055062020      0.47969549859980
  N   4.75296535477422      0.48898246995755      0.79561888989608
  C   1.17867465169550      0.03630582965845     -0.04645273705957
  H   -0.16140883524916      3.19434833987203     -0.36171212056874
  H   -4.20801254244116      1.90126982317916      0.60088042475665
  H   -6.32977214157545      0.22139820945933      0.50268681102424
  H   -6.08117852021295     -1.38729598024155     -0.00587353901545
  H   -3.60206413549687     -2.27333885782072     -0.42597581710508
  H   -1.19982520142597     -2.44890470868939     -0.58119890337830
  H   4.30794603228993     -2.43028425171733      0.40526638857162
  H   3.21260242504245     -3.73258664127720      0.09554886255652
