25
Coordinates from ORCA-job ./opt_b97-3c_parallel
  N   -3.48444854229670     -3.35993412440950      0.35111200891835
  C   -2.65558710488998     -2.55341857101778      0.26049266859416
  C   -1.57876320306896     -1.62501799734670      0.17777913316773
  C   -0.32332519248262     -2.22199088652443      0.35064391412556
  N   0.91226982734133     -1.82985251450701      0.11693917268808
  C   1.54410793429622     -0.70301768416935     -0.00199994755120
  C   2.94142643992502     -0.68779500766525     -0.27793568553400
  C   3.70969530477528     -1.82557936925019     -0.56103412341085
  N   4.35533845252249     -2.76115410333308     -0.79879804248941
  C   3.42899446178239      0.61258369271818     -0.12390266997497
  C   2.38401764031536      1.48291637949779      0.20973353445061
  C   2.50642332060623      2.86528985285112      0.40785837992757
  N   2.63323439501929      4.00778676855105      0.57232084209596
  C   1.15890078655925      0.76101700585007      0.23134336357385
  N   0.03035865377756      1.40242483416688      0.26698442669596
  C   -1.22828332780548      1.03004184316975      0.10300271854784
  N   -2.14729699027442      2.00128786122397      0.00586853990816
  C   -3.31033276572481      1.35105583690634     -0.21513650701181
  N   -4.45758082054332      1.99138647596819     -0.39360976821132
  N   -3.24549300839446     -0.01077465046306     -0.24662666206061
  C   -1.96050595889106     -0.28405821604528     -0.04364592393665
  H   -0.37724196812410     -3.26680342553809      0.63944108895522
  H   4.46041009202719      0.90280671892439     -0.23891302148730
  H   -4.48388920175321      2.99429962712496     -0.35593011072625
  H   -5.30207246779738      1.47251114061503     -0.55450156405417
