26
Coordinates from ORCA-job ./opt_b97-3c_parallel
  N   3.30161006278548      3.01892985686107     -0.04507431269296
  C   2.43058619958976      2.25243535163105     -0.02622716077559
  C   1.28260169332371      1.40300503830188     -0.00674409968515
  C   0.07857840759584      2.15560729734955     -0.01029098876460
  N   -1.20436609968788      1.90843318969004      0.01136159922616
  C   -1.94120832036751      0.80438213440413      0.03529064350938
  C   -3.31708111693415      0.92892090147869      0.05902828478732
  C   -3.92489674708121     -0.35565436388286      0.07050328994678
  N   -5.25437509756321     -0.57111994742926      0.12118415491369
  C   -2.92597142669496     -1.33251645999493      0.05852100218609
  C   -1.66522624669442     -0.71582842287840      0.03740047444750
  N   -0.59487065030078     -1.46385552436623      0.02580659372021
  C   0.70647950132118     -1.19997713613675      0.01496951594294
  C   1.61500485301666     -2.25283444069952      0.01184892504624
  C   2.90118482053959     -1.68084797711095      0.00721766051782
  N   4.08559148258626     -2.31283490341254      0.03065846263313
  N   2.86660959303490     -0.32992212163774      0.00737533716180
  C   1.57178469524631      0.03677412007796      0.01039857713014
  H   0.28255171785413      3.22295317252343     -0.03198618025429
  H   -3.83042498623471      1.87737255302914      0.06502171345294
  H   -5.61962015490489     -1.49503702573820     -0.01908566583619
  H   -5.89212133306450      0.18859914873097     -0.02892535789690
  H   -3.06488113020263     -2.40136904218368      0.06680524760440
  H   1.34507430645892     -3.29525111521792      0.01949200188003
  H   4.14642499171913     -3.29925455465034     -0.13480319116507
  H   4.91560484345889     -1.75963934303763     -0.09200728643610
