26
Coordinates from ORCA-job ./opt_b97-3c_parallel
  N   4.44109106658712     -0.56258978922546      0.54451387727078
  C   3.44013777794591     -0.01551481005519      0.32226646159620
  C   2.31262744734256      0.79155348925553      0.11487058226369
  C   2.39692070907409      2.20496967653088      0.14251385922105
  N   1.22172498561740      2.78861607811151      0.01639117980002
  C   0.27358158319122      1.78748194555917     -0.05432375755724
  C   -1.01146031492000      2.26684188752762     -0.16777669759062
  C   -2.31969195127207      1.76245571091028     -0.12623098475871
  N   -3.30667662725403      2.71368334829004     -0.31270216384198
  C   -2.77150458440215      0.46238087558742      0.10059808917374
  C   -2.19744789291893     -0.79460796368188      0.15065315932629
  C   -3.01976645457350     -1.92697592065476      0.30665404378711
  C   -2.21140396402484     -3.04596265481900      0.14711615070382
  N   -0.93158363822992     -2.72445818788416     -0.09280446257679
  C   -0.84458291432991     -1.36926504135331     -0.07431513745094
  C   0.44377140140039     -0.83755153739873     -0.18457404090422
  C   1.41895097840296     -1.83258572816035     -0.51256013686826
  N   2.22185835559006     -2.58926877499391     -0.86815597197918
  C   0.94086236366245      0.47218763086200     -0.02076825520996
  H   3.30621069905904      2.77472811319424      0.26205376841029
  H   -0.97325675934535      3.34788112203375     -0.24613039596515
  H   -3.06462409495147      3.67586513874466     -0.15465995372693
  H   -4.24154749345485      2.48131613359491     -0.02790104708398
  H   -3.84925686982451      0.41314335726959      0.22645271010548
  H   -4.08542474988345     -1.90702162340886      0.47103190215534
  H   -2.50961782238817     -4.08277118563604      0.19682412530015
