26
Coordinates from ORCA-job ./opt_b97-3c_parallel
  N   1.51882607162918      4.35358878286200      0.12214717410957
  C   1.02392068781988      3.30388874104551      0.11348896522989
  C   0.41480491135663      2.01436849335537      0.10771721705787
  C   -0.99082192943467      2.10669936052245      0.24262780563920
  N   -1.99411964452112      1.27428732280058      0.12497511162018
  C   -2.12366020773415     -0.02784692624851      0.04183017769179
  C   -3.39840085614667     -0.61209866206154     -0.13534028898870
  C   -4.60912113610538      0.07101744504131     -0.29759130860184
  N   -5.62629745765926      0.61522045878987     -0.43540443877911
  C   -3.21635316090463     -2.00598604479957     -0.04486373893523
  N   -1.94617512606463     -2.36468788193152      0.14800516922408
  C   -1.20178132572469     -1.22847613818886      0.17468483649685
  N   0.09557811923608     -1.37177808212192      0.21188928938354
  C   1.11261827126145     -0.54835705080371      0.11163576435565
  C   2.40386574373982     -1.10929779120795      0.07372145381911
  C   2.74190181799715     -2.46232137692026      0.15583106928159
  N   3.14563588937432     -3.55119021072674      0.21337782625813
  C   3.36630186669835     -0.07369880346766     -0.10969984360454
  N   4.68091389249216     -0.26944093193722     -0.20565513573857
  C   2.68275515445048      1.15229689874284     -0.16777111918268
  C   1.31322549006521      0.94397876418549     -0.02067270095282
  H   -1.32196817301227      3.12605719089296      0.41813115826533
  H   -3.99741358974635     -2.74915447088011     -0.10811137576725
  H   5.06879797919487     -1.19525831288124     -0.14532326273701
  H   5.31560508254778      0.49582398493247     -0.34118250525342
  H   3.15473908788955      2.11416539790535     -0.28252507369128
