23
Coordinates from ORCA-job ./opt_b97-3c_parallel
  N   5.32667881012437     -0.39121278439063     -0.00462516808311
  C   4.26581683701883      0.08300349316526     -0.00315791929978
  C   2.98143800510663      0.64239656692118     -0.00138858831028
  C   2.65508419857699      2.01379603076052      0.00080457821297
  N   1.33995343324136      2.21902233781922      0.00216248377510
  C   0.73866713923399      0.99320847855285      0.00086527857138
  C   -0.64193004684191      0.98463168400701      0.00183030551933
  C   -1.59667960201454     -0.02115290605553      0.00077367571338
  C   -2.97024810668707      0.27905201635638      0.00168246291177
  C   -3.55285877602037      1.55262236328218      0.00419912693636
  N   -4.03859482485561      2.60851035483119      0.00634375613337
  C   -3.66011352787195     -0.96133979595363     -0.00051552722293
  N   -2.84385653708953     -1.99907718164201     -0.00259410354620
  C   -1.55538047417878     -1.51824390041441     -0.00190918148551
  N   -0.61661999801301     -2.42612314867541     -0.00337649594684
  C   0.70637814966633     -2.41871572064431     -0.00350054180548
  C   1.71079135943807     -1.45354292294308     -0.00294416332360
  C   1.75597889440869     -0.06672428051607     -0.00143092303871
  H   3.35335899923357      2.83659271409434      0.00139964564669
  H   -1.04364720739755      1.99230716183749      0.00363824355193
  H   -4.73276337526698     -1.08529843043783     -0.00054468416024
  H   1.10755815255274     -3.42826309164123     -0.00457699812849
  H   2.69627013693504     -1.90824173601238     -0.00396266572093
