27
Coordinates from ORCA-job ./opt_b97-3c_parallel
  N   5.24775446762709      1.26646320634904      0.84643904947491
  C   4.40039255318019      0.51064168671187      0.59745709689160
  C   3.38132109037194     -0.39914810361700      0.29759203817983
  C   3.49275386097783     -1.78360370720474      0.09707854992065
  N   2.33925436427647     -2.36630419549136     -0.24453388055045
  C   1.38764512667108     -1.39327240928502     -0.26115541807054
  C   0.07919327349819     -1.78830713157052     -0.38860501434429
  C   -1.14439460445403     -1.13476321769872     -0.23204383407223
  N   -2.24359107399362     -1.90501482108802     -0.23627236967442
  C   -3.30570652347248     -1.10469908898000      0.03466534402685
  N   -4.53807383639137     -1.61199307857599      0.09355175012276
  C   -2.91920227085409      0.23741151528991      0.22139931844343
  C   -3.77306784552172      1.30988727222805      0.46957425821496
  N   -4.50337309502266      2.19401262428435      0.67412801704647
  C   -1.50961763091002      0.28094165927593      0.02843417611436
  C   -0.82941682226910      1.47014122543977     -0.01673171207235
  C   0.52197843926148      1.83859647577442     -0.24153333602427
  N   0.71917334622330      3.13288184114842     -0.61965924042868
  N   1.65239181892732      1.18387730219584     -0.04528830163492
  C   2.02783563898382     -0.06335334103596      0.02565727449956
  H   4.39859350110036     -2.36489164541357      0.18757787783947
  H   -0.03156521107325     -2.85366674485969     -0.54505544347078
  H   -5.32962993963272     -1.04053489633453      0.32413608081447
  H   -4.67022117154490     -2.59645213602807     -0.04966615123298
  H   -1.47625318692360      2.33018595462051      0.12596239799129
  H   1.65390601493533      3.49516948524479     -0.54666453829565
  H   -0.04027110527087      3.78739760512028     -0.65168768610904
