24
Coordinates from ORCA-job ./opt_b97-3c_parallel
  N   4.46952574986251      1.73694551463401     -1.00100738734671
  C   3.77576725417774      0.85521674556326     -0.69820487953273
  C   2.93497250731170     -0.19903452524038     -0.32730725986174
  C   3.28388195724798     -1.52906160251273     -0.05051524331029
  N   2.25254185464051     -2.27366997448264      0.37304988835964
  C   1.15485375487990     -1.47868947755386      0.35779638355879
  C   -0.08290958274934     -2.05778123383130      0.49543294078366
  C   -1.36418544626905     -1.58576289292200      0.21639489770210
  N   -2.36270478472184     -2.48624911735448      0.16402879618559
  C   -3.42813641973673     -1.79023272601768     -0.29783218704990
  N   -3.23577527612392     -0.49712631638801     -0.54590351677631
  C   -1.93472444566438     -0.27762349620067     -0.20837598799244
  C   -1.50379322237958      1.03928618899415     -0.14217905813146
  C   -2.47004781504557      2.02425479122420     -0.47848075366526
  N   -3.17479499965231      2.91970114501879     -0.70355318685518
  C   -0.22958930942688      1.57967419382129      0.27687745625654
  N   -0.23064491705474      2.81621289168457      0.81650580230370
  N   0.96327815868998      1.07337662747771      0.06681953512336
  C   1.55208262602050     -0.08308723069798     -0.01585879455884
  H   4.27151544847534     -1.95588257108610     -0.14027981729096
  H   -0.05350088579848     -3.11529112596179      0.72483292592841
  H   -4.38416575726380     -2.26558246941351     -0.45826487310858
  H   0.65088096267594      3.29718014640496      0.87079183878217
  H   -1.07136101149572      3.36575680884000      0.85438093559711
