22
Coordinates from ORCA-job ./opt_b97-3c_parallel
  N   3.37458899488185     -2.76996279767505     -0.00192017530144
  C   2.96096019737357     -1.68345989220443     -0.00190670066771
  C   2.44259861925934     -0.38284249133988     -0.00196151179922
  C   3.16654771772785      0.82296482910463     -0.00195160896456
  N   2.36922270529413      1.89141386286654     -0.00203176566845
  C   1.08085958207701      1.43857212768486     -0.00211995879617
  C   0.08514072109783      2.40367053646103     -0.00224104514625
  C   -1.30989628869636      2.41699533065896     -0.00245893343650
  N   -2.28100496776921      1.52136765215524     -0.00262775271885
  C   -2.33005754194289      0.21164527231251     -0.00249697300225
  N   -3.57888389609342     -0.33464401776650     -0.00269223207974
  C   -3.43398116514832     -1.66484586923700     -0.00243370150040
  C   -2.09574100182608     -2.06918224297574     -0.00208935327122
  C   -1.31865748967535     -0.90788488870476     -0.00212241712088
  C   0.06265123307893     -0.97557410001581     -0.00201898401282
  C   1.06893411222378     -0.02576214384425     -0.00205594276988
  H   4.24109988099932      0.92338920899989     -0.00189098218393
  H   0.51309902112448      3.39936749673995     -0.00220402587436
  H   -1.70592079343065      3.42914476520941     -0.00255520102010
  H   -4.30301056500506     -2.30671970582496     -0.00250374910988
  H   -1.71885793126581     -3.08038834208081     -0.00187131050179
  H   0.43901685741527     -1.99459194382374     -0.00188275595350
