30
Coordinates from ORCA-job ./opt_b97-3c_parallel
  N   -2.61659863875818     -3.44944286413608     -0.73120079154039
  C   -1.80679006572114     -2.65987504050921     -0.46928982152247
  C   -0.73125330921267     -1.75301645566972     -0.23289665522708
  C   0.49655837008540     -2.45131669303609     -0.26144725340772
  N   1.75758782534715     -2.18986741262322     -0.00725344549404
  C   2.48971556804639     -1.10088039306694      0.07300932578386
  C   3.85254220514354     -1.20168116676613      0.36913476810297
  C   4.45291007635207      0.05617494748055      0.21081497001471
  N   5.74992932051510      0.35354813598680      0.41333857705891
  C   3.45677663528021      0.98958528888483     -0.17838371526239
  C   2.22435485600239      0.35336553534197     -0.23638548093400
  C   1.05540149107875      1.08202318770156     -0.37740814445733
  C   -0.29447858326897      0.81931175952471     -0.22253031833053
  C   -1.20563058080379      1.91523478445656     -0.17061279932992
  C   -0.89616674042121      3.26913314718384     -0.30209765644628
  N   -0.67667678221027      4.40838143965466     -0.40677528373060
  C   -2.49602869072364      1.43138989104211      0.11691837117276
  N   -3.60106450570762      2.15867035360584      0.29447100338392
  C   -2.42179826855361      0.01348597859401      0.20166248038212
  C   -3.56396622465820     -0.71172103784270      0.55828087102243
  N   -4.58940599365218     -1.14202164119147      0.90135035160697
  C   -1.09046198916450     -0.40340461364430     -0.03409316083464
  H   0.34503610061266     -3.50709850393471     -0.46789773901109
  H   4.34704976417029     -2.13005637156430      0.60271736160771
  H   6.12042146928527      1.23965919570085      0.12396321617488
  H   6.41547983770901     -0.37414851448722      0.59664834323278
  H   3.61817041087780      2.04542484443003     -0.33547746167857
  H   1.24946518968478      2.13861246236427     -0.53439454209146
  H   -4.47107393975715      1.71463480587756      0.53093225402655
  H   -3.57293583977772      3.16091217224133      0.24862632142819
