22
Coordinates from ORCA-job ./opt_b97-3c_parallel
  N   -4.37041403322945      1.57202517751014     -0.12586176319103
  C   -3.26550167348017      1.22150390254048     -0.08295813662250
  C   -1.86875237905767      0.92915187913900     -0.06877777553228
  C   -1.08543285094990      2.09671658446312     -0.22804406325720
  N   0.18141119274512      2.37392155767759     -0.06591465930032
  C   1.30234892280501      1.69340414761965      0.04491177364512
  C   2.50771475879363      2.38130284908776      0.26513653251797
  C   3.53394823332091      1.45310358891210      0.15748508925533
  N   3.08831382459069      0.20648878639439     -0.10988126530170
  C   1.74386301661190      0.25850385819142     -0.14587300545448
  C   1.05595388096516     -0.95189603827495     -0.19234436984038
  C   1.87900420996477     -2.10874519309658     -0.35569170330106
  N   2.54099407717024     -3.04438271207733     -0.52538966950487
  C   -0.31718588050427     -1.23175337778631     -0.02062633584162
  N   -0.67928938423413     -2.52129351984054      0.08705347840766
  C   -2.01164677685470     -2.49051868369890      0.29676665766080
  N   -2.57519128101723     -1.28141278914280      0.31246641736304
  C   -1.54684138018046     -0.41841831317933      0.11507970429179
  H   -1.68312374953013      2.97781940232404     -0.43957093111838
  H   2.57910346405759      3.44465903368513      0.41831498813423
  H   4.59473060274370      1.63414413678441      0.24593178532696
  H   -2.58360230623204     -3.39380883243273      0.44272019146665
