25
Coordinates from ORCA-job ./opt_b97-3c_parallel
  N   4.79819555230199      0.03234576417510     -1.17828686370011
  C   3.77454693345957      0.37997902166684     -0.75235749303260
  C   2.56379768287326      0.91427110413270     -0.28923459746065
  C   2.34983267476279      2.31177340904087     -0.08686203149604
  N   1.12532627782543      2.58915007667279      0.30006717153406
  C   0.43300572121239      1.38996823484222      0.32425711809830
  C   -0.91320898443845      1.49976271221671      0.55496374692484
  C   -2.00048037425046      0.63668133590879      0.36647610965862
  C   -3.29298534577918      1.09393673682509      0.30828998126929
  C   -4.07701849975037      0.01764059752854     -0.22742283129884
  N   -5.38307268245276      0.06525990391141     -0.50466970501202
  N   -3.35976295697784     -1.08461781677206     -0.44996257922988
  C   -2.08226765907359     -0.80214276742489     -0.07244197235641
  N   -1.22661650608662     -1.77534303116809     -0.01977825770963
  C   0.04953129388552     -1.92701525436062      0.27452660982887
  C   1.18777979714830     -1.11745557585546      0.18999292855713
  C   2.37606592999869     -1.87669444523680      0.39129926794528
  N   3.29784434173558     -2.54441761524788      0.61933826769245
  C   1.34785704963938      0.27859519703629     -0.00699125229708
  H   3.08944580852510      3.08435768117346     -0.23749989976484
  H   -1.19077405180107      2.52265958279663      0.78145454860090
  H   -3.63595185188329      2.08897541091436      0.54697839619382
  H   -5.83580882609397     -0.76083339324047     -0.85456522544551
  H   -5.94863259934570      0.85398227325314     -0.25502133589650
  H   0.28284390157215     -2.95405417583218      0.54028496510226
