27
Coordinates from ORCA-job ./opt_b97-3c_parallel
  N   5.38136931805095     -1.04328733055132      0.72220449933608
  C   4.48388558878411     -0.33029338815917      0.52602680735512
  C   3.37662843525752      0.48876712921029      0.28243852535600
  C   3.35153910955542      1.87496226492226      0.12770242952043
  N   2.11846939117337      2.33874029475226     -0.13241385082497
  C   1.27698396951455      1.27633764136024     -0.15439215399205
  C   -0.07760609519082      1.56043069676295     -0.28722043845546
  C   -1.21936701668050      0.80095262984315     -0.17061012995198
  C   -2.50630698599359      1.40260940870561     -0.09472621390687
  C   -2.77320606544997      2.76585861384904     -0.27869892981900
  N   -2.98365563166956      3.89802955756298     -0.43726385992249
  C   -3.46281170600494      0.43084548286024      0.24192839397791
  C   -2.83611522445617     -0.80459509782363      0.35422118703684
  C   -3.44724853505045     -2.03834257819544      0.61623443710802
  N   -3.94397666175346     -3.06638702529666      0.82997082834544
  C   -1.43705834749527     -0.65256608383980      0.06572383817300
  N   -0.70726972008683     -1.72172500221158     -0.05912169017184
  C   0.55826329775775     -2.03135802245695     -0.28413050984493
  N   0.72988544658963     -3.30604883458530     -0.72196398853827
  C   1.74584472990626     -1.30355110282991     -0.01396668808411
  C   2.03281966543786      0.03242715787530      0.07871662993071
  H   4.19407387768614      2.54483166494578      0.20063312275724
  H   -0.24647257497359      2.62320955254549     -0.42137255195918
  H   -4.51480882646767      0.61729333490535      0.37810783419199
  H   1.64323439094155     -3.71022354330697     -0.81661210772809
  H   -0.06571638660885     -3.92035817167801     -0.70209176953155
  H   2.61128977212657     -1.94386701926617      0.12661743784203
