26
Coordinates from ORCA-job ./opt_b97-3c_parallel
  N   3.71709704088457      2.38311340168034      0.93401244462818
  C   2.73083168149377      1.85966534618290      0.61627989005582
  C   1.47225398513019      1.27004646005801      0.31228609635258
  C   0.41781143170594      2.16537908474872      0.50523212934165
  N   -0.84375110166782      2.16350049307406      0.13645375920568
  C   -1.78355161299128      1.29958051228614     -0.07697184093754
  N   -2.99172287179552      1.75303600691570     -0.50862765124018
  C   -3.84067973602143      0.73064411448870     -0.40469657170035
  N   -5.12121736718464      0.84655669500618     -0.75447530328722
  C   -3.22203165134738     -0.46256427287640      0.10659451212922
  C   -1.89245290671006     -0.17048019132934      0.25450779874278
  C   -0.89452732901205     -1.16890144613134      0.42569422543336
  C   -1.42621148057018     -2.46476553327289      0.71454469147460
  N   -1.98093702284497     -3.44501243163833      0.99020204567203
  C   0.46831539321744     -1.15139191143759      0.17246341390974
  N   1.05084091387150     -2.39256771230640      0.02025552316967
  C   2.28430458255031     -2.19132118489685     -0.38323457120436
  C   2.61818476448864     -0.80424404780631     -0.45929512131573
  C   3.85889898497314     -0.32614327853208     -0.90161396202140
  N   4.89595182236264     -0.01260894851981     -1.32158749547883
  C   1.47384796408573     -0.09430899390772     -0.07521021757415
  H   0.72299986898771      3.11357733799232      0.93790985987793
  H   -5.45663105308889      1.72791986882816     -1.10236272603503
  H   -5.77684289342669      0.10015185409000     -0.61949539088917
  H   -3.69891135181988     -1.41554642342749      0.26642701743095
  H   2.94070583732880     -3.01043881036872     -0.63651076574060
