24
Coordinates from ORCA-job ./opt_b97-3c_parallel
  N   -3.95340104089477      2.32093929479226      0.00789869819422
  C   -2.99121546317321      1.67313369955531      0.00326659184271
  C   -1.72623366208590      1.00650458498413     -0.00297132254249
  C   -0.65378993248157      1.93467210554090     -0.01123794371074
  N   0.65441458573741      1.86986817375494     -0.01856554696084
  C   1.54058434784391      0.88751605407418     -0.02094268100181
  C   2.88968504301959      1.22124850645085     -0.02723786010259
  C   3.68342911546229      0.05157364238103     -0.02402853143630
  N   5.02987765963189      0.02311947054496     -0.05395212524843
  C   2.83257679095618     -1.06547343235449     -0.02123103340210
  C   1.49674895198482     -0.64690577912987     -0.01717946663985
  N   0.55298072001996     -1.55659545397575     -0.01032611597217
  C   -0.76650243162781     -1.47925077274845     -0.00332690131417
  C   -1.52881856188791     -2.65856781814999      0.00316333052451
  C   -2.86556611851684     -2.27952008892521      0.01002868524046
  N   -3.03181096543878     -0.94209676525910      0.00849084144858
  C   -1.79806283833204     -0.38558860746758      0.00039400465635
  H   -1.00951209634293      2.96067221991369     -0.01170933844727
  H   3.24804672218470      2.23839352270179     -0.03343196911443
  H   5.55652682108037      0.86540992383272      0.08573968491451
  H   5.52071875043187     -0.84051760484631      0.08612116187362
  H   3.12874241831773     -2.10218998841357     -0.02179922774778
  H   -1.11214750567544     -3.65149844315783      0.00260830135438
  H   -3.73059110071569     -2.92687203710407      0.01605350499288
