26
Coordinates from ORCA-job ./opt_b97-3c_parallel
  N   4.83129054251580      2.12627734939659     -0.41243166138932
  C   4.14363849139084      1.22065700256467     -0.17094618300729
  C   3.33680004802130      0.11835881042040      0.12392722183791
  C   3.71860438586106     -1.06184277335044      0.80718284035782
  N   2.73076294784234     -1.94423505572992      0.94761809379496
  C   1.62632675974676     -1.38148117310898      0.38411654820501
  N   0.58673513500259     -2.12229580048455      0.14397268732266
  C   -0.63648469274145     -1.94310727502892     -0.29008183000139
  N   -1.15413938853213     -2.96414243612678     -0.99693417793549
  C   -1.53691630472253     -0.85420264364990      0.06711861242511
  C   -2.86170543182517     -1.31226188993365      0.28230641593174
  N   -3.91176943902544     -1.79885876761384      0.38625341338090
  C   -1.26182489197646      0.49966698440166      0.11811083688625
  C   -2.24617746372900      1.50202398015830      0.35535353481881
  C   -3.49518201044946      1.36809739203347      0.97527188946058
  N   -4.52313486807843      1.34573187385598      1.51797098900238
  C   -1.77899868488768      2.73018059277497     -0.15867493256117
  C   -0.50327098878501      2.57466112924655     -0.66554145618192
  C   -0.06227091156327      1.25382967403628     -0.44096255555606
  N   1.22121674156779      1.00286408589617     -0.54182905446806
  C   1.94741874869149      0.00207030361359     -0.10116892535335
  H   4.70689522843496     -1.27234672587595      1.18849982116605
  H   -2.13442385065720     -3.00125312232789     -1.21590237391524
  H   -0.62888691001457     -3.82112400755065     -1.03377861916892
  H   -2.34291131493857      3.64808155514144     -0.11880257535065
  H   0.14268985765368      3.34656183233972     -1.04777415580284
