27
Coordinates from ORCA-job ./opt_b97-3c_parallel
  N   -5.70467628847390     -0.74200780481065      0.00060180659360
  C   -4.71652349922645     -0.12981375370453      0.00026201401484
  C   -3.51901663466735      0.59612271079183      0.00017855526839
  C   -3.37967436253369      2.00257834819123      0.00019541834401
  N   -2.11000744553180      2.38594818731033      0.00013835142559
  C   -1.34469492716956      1.24722838099200      0.00007146174530
  C   0.01788595046805      1.43638851090529     -0.00001717499854
  C   1.13647387188516      0.60519093650177     -0.00011090169714
  C   2.43058733946576      1.15845740088684     -0.00019544686760
  C   2.80111319358100      2.50402466565970     -0.00022306973141
  N   3.17422200356591      3.60618799961334     -0.00024190264753
  C   3.34526282836158      0.06207767393635     -0.00028148790861
  N   4.67539508665839      0.13704874041756     -0.00033452016451
  N   2.69794732742150     -1.10993857270105     -0.00024481862270
  C   1.37182361535735     -0.85080250659310     -0.00014071971762
  C   0.51717868355110     -1.96637935138958     -0.00007408578392
  C   1.20819997496336     -3.21948117657174     -0.00007263021984
  N   1.67214989889427     -4.28240242446973      0.00010621486592
  C   -0.87760783508261     -2.13468631663048     -0.00000747928233
  C   -1.98567722104992     -1.31253905016611      0.00005614401806
  C   -2.21233077780975      0.05967220962182      0.00009231350357
  H   -4.18526681349991      2.72119852931837      0.00025233667553
  H   0.25945387991507      2.49372028265051     -0.00001314906977
  H   5.21572920854551     -0.70947090915059     -0.00057256257998
  H   5.15129405924368      1.02044267789061     -0.00058378649857
  H   -1.14915964080529     -3.18179967458709      0.00000424282287
  H   -2.90956928922743     -1.88062765911292      0.00009693341242
