25
Coordinates from ORCA-job ./opt_b97-3c_parallel
  N   -4.64212580223668      0.90966722683898     -0.43804638999625
  C   -3.70282772302919      0.23762849117986     -0.30406465058515
  C   -2.57994258396327     -0.58138971170485     -0.14431196721508
  C   -2.54672778578473     -1.99163258289997     -0.05036648645446
  N   -1.32344003347998     -2.46164997460220      0.14651060574044
  C   -0.47063925097671     -1.37969021584738      0.16450729196709
  C   0.87309308455663     -1.65235001952616      0.23498877645384
  C   2.02543495203529     -0.87867038057093      0.11566055031867
  C   3.28300850193935     -1.47088929959203      0.08711833829266
  C   4.27679894902824     -0.49110668481184     -0.15768641417270
  C   3.66793849338440      0.72988426132406     -0.28681846983744
  C   2.25036413236264      0.57467936605161     -0.10403059400588
  C   1.45687785104889      1.67772994853229     -0.05865842469703
  C   0.05891017394317      1.92518817562780      0.16108183424297
  N   -0.22694953667479      3.23619904420307      0.46833496811360
  N   -0.99801010742331      1.16512315221238      0.07774169610209
  C   -1.24713315656162     -0.13306411077879      0.01055347877547
  H   -3.39818243234092     -2.65269502148371     -0.11696093706934
  H   1.06173710946394     -2.71460349031731      0.34528009049589
  H   3.45958903234020     -2.52843751449688      0.20904926590611
  H   5.33595783614399     -0.68291742847965     -0.23037112551898
  H   4.15287267759993      1.67753419721239     -0.46113074042500
  H   2.01448708818891      2.59748606965559     -0.20847988677810
  H   0.43497395642668      3.95970656829773      0.25359079764750
  H   -1.19892715349109      3.48767643907592      0.40075384419913
