21
Coordinates from ORCA-job ./opt_b97-3c_parallel
  N   -3.61073079114452      2.31418059894417      0.00932968626111
  C   -2.64293613363191      1.67488316310489      0.00574348809640
  C   -1.37824136526371      1.01036987349745      0.01346291663126
  C   -0.30563123677778      1.93901475690709      0.06048002315051
  N   1.00187163465581      1.87868372054495      0.01027149414896
  C   1.90654384365695      0.91594211132678     -0.00901156496218
  C   3.26631976787199      1.24996140127220     -0.08581364965966
  C   3.98427668472905      0.06018196440979     -0.03193220427096
  N   3.19462605014765     -1.02824341742904      0.07114471164387
  C   1.91310104650699     -0.59068425053270      0.07695964920388
  C   0.92683081549625     -1.54691825110523      0.08945251547706
  C   -0.46310573764514     -1.47726481257882      0.03321293231929
  N   -1.14647055552127     -2.63967718239384      0.01335900921452
  C   -2.44267222569692     -2.26882424040205     -0.06441388311506
  N   -2.68245686088149     -0.95613548869439     -0.09233281525546
  C   -1.45208587503746     -0.38423825239541     -0.03189123826549
  H   -0.66369818445257      2.96235293957044      0.11932681914050
  H   3.64294226700532      2.25663916543147     -0.15210940215810
  H   5.05785777478428     -0.05600185640225     -0.05832345807262
  H   1.30428198639872     -2.56112658523742      0.12707747068521
  H   -3.23949316169853     -2.99602035263707     -0.10160950301407
