24
Coordinates from ORCA-job ./opt_b97-3c_parallel
  N   -3.86284310530398     -1.62474604080649      0.22866322704173
  C   -2.78789666997430     -1.19571320441486      0.12907155269365
  C   -1.44235198925722     -0.73926263253232      0.02110946463683
  C   -0.51432968006703     -1.80591758149788     -0.05383019085598
  N   -1.02577006113093     -3.08369025289192     -0.12510207965038
  C   0.89541132730860     -1.77687479605378     -0.11499489870269
  C   1.89721441566255     -0.84778372872261     -0.04267693588758
  C   3.25309678934405     -1.26072166876624     -0.05529349713020
  C   4.01870547152534     -0.12170019431281      0.07576950840634
  N   3.27739133706180      1.01153289425846      0.15200920931900
  C   1.98250442160712      0.64896784357576      0.08470158208122
  N   1.09721223031612      1.62148950157760      0.08412342075393
  C   -0.19861716602110      1.67943765020413      0.01188527327611
  N   -0.73359599830053      2.93868039404985     -0.00523414455534
  C   -2.05521072405472      2.80309666657424     -0.05636904486028
  C   -2.48045114525566      1.46774227143424     -0.05458959672804
  C   -1.34060694725723      0.66794378764031     -0.02442816576984
  H   -2.00038474690861     -3.23430670134708      0.07116963241915
  H   -0.42683598046269     -3.84135506591299      0.14672729818919
  H   1.29785075882195     -2.77953207553894     -0.22666324225997
  H   3.59869244211566     -2.27974043151767     -0.13609328653024
  H   5.09627123160532     -0.06144724615360      0.11760977463266
  H   -2.69333156519685      3.67478240724977     -0.09643365674369
  H   -3.50190004818157      1.12671416190613     -0.08288404257827
