27
Coordinates from ORCA-job ./opt_b97-3c_parallel
  N   1.47444734967452      4.34311450875313     -0.08028678645127
  C   0.98887683081692      3.28936216669244     -0.06414513214599
  C   0.39061304155647      1.99286609309072     -0.04641187028467
  C   -1.01370905507577      2.08100259674278     -0.08273436599189
  N   -2.02062016041064      1.23112507204302     -0.03035710867692
  C   -2.13551802282476     -0.06859289426028     -0.00382331863160
  C   -3.43931235901190     -0.64410868201225      0.06019218882744
  C   -4.63231169502254      0.08856152318342      0.11847889366124
  N   -5.63603874873331      0.67168545963928      0.16847494567673
  C   -3.33346807404888     -2.04361614549990      0.03483210200513
  C   -1.99320603271300     -2.40389155474625     -0.03835882518537
  C   -1.18492486071221     -1.25449049729367     -0.05470128618139
  N   0.12005959331218     -1.39158664247104     -0.06978104995285
  C   1.12930419659866     -0.55529384728165     -0.03780914255855
  C   2.43603248157283     -1.10767713377445     -0.02505520202362
  C   2.76852441000788     -2.46330182279019     -0.04974576054414
  N   3.14412162837311     -3.56418656698278     -0.06714479257811
  C   3.38965068217693     -0.06002189208446      0.03388156501314
  N   4.71617332461355     -0.22426343663513      0.06755313581992
  C   2.68841090519613      1.16018094185172      0.04990568420086
  C   1.31401906484011      0.92942114509447      0.00304527194711
  H   -1.35871686887911      3.10843015022236     -0.14273564748629
  H   -4.17222437581785     -2.72015636804293      0.06657030253371
  H   -1.59373341428730     -3.40391426712598     -0.06643474342947
  H   5.33858212745756      0.56070917405905      0.11076560794614
  H   5.12141971500574     -1.14340559895303      0.04907250349722
  H   3.15241224762894      2.13226282998089      0.08487043789499
