26
Coordinates from ORCA-job ./opt_b97-3c_parallel
  N   -4.92131214246667     -2.06700194835480      0.49714122337280
  C   -4.22363257324786     -1.17924860421867      0.21851447788991
  C   -3.38579348687670     -0.11078357195826     -0.11236646009860
  C   -3.75039637380066      1.06866937422477     -0.83198201625008
  N   -2.74706045310743      1.90705098339958     -1.01010499685126
  C   -1.65290020317177      1.33000446953214     -0.40573610157150
  N   -0.60730368991826      2.05871708955476     -0.19454542056804
  C   0.60546846331100      1.93240036489406      0.30074799193525
  N   1.04870175097403      2.99965001943127      0.99087307282488
  C   1.54381863046725      0.87327567049870      0.01028933834620
  C   2.87019665023333      1.35491696863664     -0.11725627470134
  N   3.91910671228198      1.85450355792361     -0.15289341699305
  C   1.31110715333106     -0.50108162608963     -0.06364576244881
  C   2.31996240839386     -1.47147605902847     -0.29507105844506
  C   3.61266092263883     -1.31894015754221     -0.81275993909656
  N   4.68250004165490     -1.28618323749461     -1.26542540672160
  C   1.77971812476755     -2.70915560259790      0.10911852164196
  N   0.52480564511318     -2.61454706339683      0.53717992076115
  C   0.14801652437423     -1.31058878215576      0.39934025417600
  C   -1.20718391036479     -1.07008233653436      0.52584379986815
  C   -2.00355392619468     -0.01597230887633      0.11108361124688
  H   -4.74014263263969      1.28984406824611     -1.20375134906195
  H   0.50378965720740      3.84392589186134      0.94874405757167
  H   2.01506594335553      3.07679793266361      1.25707773648335
  H   2.29232097369849     -3.65855574118078      0.07573735047329
  H   -1.74306025630504     -1.95615482024316      0.84671756155347
