28
Coordinates from ORCA-job ./opt_b97-3c_parallel
  N   2.67935369342657      3.86069687662117     -0.01210288270600
  C   1.87753761624737      3.02084157132929     -0.00589153368130
  C   0.88486640032647      1.99512989074150      0.00165987710355
  C   -0.41388292730882      2.57026902562735      0.00551031980940
  N   -1.65679599823747      2.16764857930765      0.00755171921860
  C   -2.25669618280298      0.98283747685992      0.01375997133420
  C   -3.64397333455990      0.90870008015113      0.01232503433904
  C   -3.97596077777678     -0.45682858359628      0.02331057529336
  N   -5.19614550743785     -1.01137273236447      0.04438962488026
  N   -2.88065643751683     -1.26025953387790      0.03329122316165
  C   -1.80346875021187     -0.45368960966241      0.02706985103084
  C   -0.56350135359797     -1.06988818348470      0.02563725859909
  C   0.75084019737792     -0.64267944016018      0.01473265825736
  C   1.79480154133018     -1.59370132388893      0.01375263842705
  C   1.68397045434624     -2.98408467579615      0.02237110612422
  N   1.66507846461434     -4.14882955703176      0.02893239756380
  C   3.04666279853367     -0.91082073028830      0.00097437280104
  N   4.23952179718881     -1.51843000466982     -0.00402803647794
  C   2.79473853039461      0.46463289298437     -0.00568387912872
  C   1.41476368338152      0.69165520977030      0.00243733161734
  H   -0.35123544660222      3.65600963222373      0.00421982329691
  H   -4.30553066639471      1.75832721881536      0.00743506372831
  H   -5.27036616067449     -2.00986434280383     -0.03569223141058
  H   -6.02299349429117     -0.45883672310675     -0.07749621519208
  H   -0.67034395479719     -2.14913191347146      0.03458656839711
  H   5.09190389004156     -0.99119741866244     -0.01035722092128
  H   4.30668492282217     -2.52047055636684      0.00426357548404
  H   3.54995250888667      1.23196007320726     -0.01485879725104
