27
Coordinates from ORCA-job ./opt_b97-3c_parallel
  N   3.42318406260061     -2.69520358748393     -0.69851582860807
  C   2.98735876611837     -1.65273314536688     -0.42504715678865
  C   2.58373369410663     -0.33719412197360     -0.15621388759038
  C   3.49140483919787      0.74226935898107     -0.16158191430917
  N   2.89289583852002      1.91082872864966      0.01018950723031
  C   1.54456228867786      1.67070597743966      0.08537994803255
  C   0.76458593424452      2.80961968742825      0.21184939563860
  C   -0.58826761607741      3.09979789463494      0.15161284724295
  C   -1.73077884788459      2.34424599987750     -0.02693082529624
  C   -2.03448134576007      0.98737284410365     -0.07609773923094
  C   -3.37022979642602      0.60474010221439     -0.19707163995928
  C   -3.48155460969189     -0.79457691885441     -0.06860201918762
  N   -4.63357164250200     -1.50495692506528     -0.09653384339951
  C   -2.19837617513183     -1.31145492829622      0.14781590342508
  C   -1.25341009069243     -0.27214768242308      0.12097002705108
  C   0.12128509015885     -0.55098060493798      0.19942400172917
  C   0.37082231490243     -1.91932106802948      0.53941830829454
  N   0.49780735026805     -3.01593654384762      0.89517355918712
  C   1.28878737844084      0.22452340429576      0.01456362260772
  H   4.55893851602673      0.66457863356944     -0.30247596868645
  H   1.39782680816176      3.68348646539430      0.30415207431508
  H   -0.79131419191596      4.16225217448113      0.21114830751072
  H   -2.62145936216428      2.95630412466856     -0.12530375823064
  H   -4.19292402801506      1.29204660159028     -0.32306137556444
  H   -4.58627992663398     -2.50578309258732     -0.15989656041672
  H   -5.45765939744620     -1.08788407850581     -0.48890677565801
  H   -1.96774846218219     -2.35590927885635      0.26941998646087
