28
Coordinates from ORCA-job ./opt_b97-3c_parallel
  N   -4.94169784467860     -1.31181533505029     -0.48232365082327
  C   -4.16413536206271     -0.47450651738928     -0.27248291258017
  C   -3.27743308214819      0.57591669176976     -0.01478705115599
  C   -3.62881480995488      1.89791938796810      0.38143672323345
  N   -2.57608804299801      2.66575753421815      0.58013427694954
  C   -1.45340926922801      1.89855498045092      0.30928922953296
  C   -0.26947031870848      2.57094658223706      0.30555971516644
  C   1.06732681481267      2.28204162886958     -0.07342874312905
  N   1.80263283185291      3.40113219784897     -0.29631016549441
  C   1.73351691518611      1.02892767561375     -0.15700587647381
  C   3.09013550743571      1.17650142251175     -0.55346492690952
  N   4.14757032357015      1.42702053109908     -0.96526781990321
  C   1.31736322050773     -0.30174470076491      0.07825626777551
  C   2.23774831637475     -1.34623312387370      0.29514967894807
  C   3.58257202598941     -1.24586566317197      0.68514961552793
  N   4.68026850744520     -1.23445951167778      1.06594488015612
  C   1.59125034834691     -2.60502468241078      0.17327257690564
  C   0.26676129918288     -2.40511657590770     -0.13347081368749
  C   -0.70583437979376     -3.40040782506858     -0.30876913919415
  N   -1.48638600330747     -4.24583493481383     -0.46248710257407
  C   -0.00818274005909     -0.98423163729669     -0.13160251874260
  N   -1.24630037324705     -0.62106756936228     -0.24475906265203
  C   -1.87182647897922      0.52845595158529     -0.04535195209351
  H   -4.63309692463630      2.27145845771544      0.51480125712423
  H   -0.42244345909561      3.61072091598684      0.57148083939515
  H   2.76642769868624      3.35097787409868     -0.57793901825690
  H   1.35155095842666      4.29314626207299     -0.36787945543371
  H   2.07369004447978     -3.55553621655852      0.32655886188824
