27
Coordinates from ORCA-job ./opt_b97-3c_parallel
  N   4.17300380849295      3.25085191681304     -0.13673970016299
  C   3.75403399042306      2.16807726828791     -0.07948893089413
  C   3.22695565524362      0.87294728445416     -0.01121741214888
  C   3.94513138947779     -0.33375681297754      0.11152284774903
  N   3.13368907139174     -1.38643469335970      0.15759149016490
  C   1.85457871799623     -0.92355409635872      0.07075210413378
  C   0.83878088017619     -1.88876368276952      0.03673678199840
  C   1.31573430730922     -3.23842062427476      0.10929439082909
  N   1.58836489622021     -4.36383246031964      0.16381072794692
  C   -0.55238854876141     -1.83929855332407     -0.08007087785282
  C   -1.56308644765951     -0.86238015459815     -0.10398388956134
  C   -2.82549334649778     -1.51809034758285     -0.28190954686578
  N   -3.77550754585102     -2.15352245102509     -0.47719929239612
  C   -1.59270228644678      0.53645024601657     -0.00208806273966
  C   -2.79944869451198      1.29103680447578      0.08740353503959
  C   -4.12745650633037      0.86350048959891      0.25521556863978
  N   -5.25559921940724      0.64913020468216      0.42999357119607
  C   -2.49486133685236      2.66759837985599      0.06763954591136
  C   -1.12925863493088      2.81473681575918     -0.03789461741018
  C   -0.50842306434693      1.54361880841838     -0.05851315207860
  C   0.86992108320476      1.50680347096320     -0.09797424458485
  C   1.85027026725040      0.52540232624636     -0.03452270826731
  H   5.01689589766519     -0.44370846791744      0.16356667029866
  H   -0.97028798750144     -2.83313082224818     -0.14754469164981
  H   -3.22969838475337      3.45220449872985      0.13632939348993
  H   -0.59170283483712      3.74855245608668     -0.07676511583328
  H   1.29682342493680      2.50298735796743     -0.15477275555176
