24
Coordinates from ORCA-job ./opt_b97-3c_parallel
  N   -4.11058186571445      2.03757090840398      0.36046132940219
  C   -3.41367182163697      1.11913844768862      0.20912040735172
  C   -2.58451524091031      0.00647176792317      0.02847817105584
  C   -3.00648373881103     -1.31867577808594     -0.27180870691415
  N   -1.99783167550518     -2.15405091156119     -0.40550072639398
  C   -0.83750752159243     -1.42430191231371     -0.18504638449344
  C   0.31531524094311     -2.15434680964023     -0.13244824726696
  C   1.68916191302134     -1.86445537689508      0.10990278878066
  N   2.44114363928702     -2.95374181886093      0.46518345850019
  N   2.39590853188738     -0.76482128578196     -0.03363085070561
  C   2.13566260876820      0.52754734544434     -0.09160167201530
  C   3.16899917502300      1.44962005228446     -0.30159486474217
  C   2.61961980706598      2.71970810976466     -0.13715271353628
  N   1.30696292588482      2.70051783663959      0.15023318808455
  C   0.92596927367485      1.39413148902414      0.15434025671210
  C   -0.41948016938096      1.13803151843473      0.24108501173625
  C   -1.17832258508515     -0.01831873378441      0.07353347633199
  H   -4.03011984673979     -1.64335442909286     -0.38714133826659
  H   0.11225381381393     -3.20607249221116     -0.30048365683438
  H   2.06973771750846     -3.88070596400008      0.36655302012645
  H   3.43814908030235     -2.84964646904282      0.39314502355094
  H   4.19686073657065      1.18763448023848     -0.48810322835070
  H   3.14021724090007      3.66436124352788     -0.20742386801297
  H   -0.99792227037473      2.04337453589626      0.38994374589948
