28
Coordinates from ORCA-job ./opt_b97-3c_parallel
  N   4.65488595395297     -1.94016826038584     -0.00522916994059
  C   3.88018765848728     -1.07457009874509      0.03568306005395
  C   3.07870363755164      0.06817813070149      0.15954208172863
  C   3.60841976412308      1.29150555703531      0.68505521183481
  N   2.71079803731134      2.23325954605493      0.81137195862544
  C   1.51004488506161      1.69913899326386      0.35149854625025
  C   0.51771989129834      2.60588916845594      0.17117623228849
  C   -0.80624429004090      2.51715355637529     -0.37093736292125
  N   -1.26389278960336      3.65682857738645     -0.94134304043863
  N   -1.68921676934322      1.56303642389931     -0.25571148187764
  C   -1.64667628483540      0.27438800998275      0.00694281906699
  C   -2.81780420329048     -0.43883742869360      0.30092555484058
  C   -4.09975559431354      0.07391027980264      0.49461375592859
  N   -5.19147613444359      0.44040287828996      0.66180494008945
  C   -2.47859820515117     -1.82124173347184      0.18988925773637
  N   -3.30130009009220     -2.84981240998306      0.37168285819590
  N   -1.19058409432420     -2.00624723115643     -0.14112268682666
  C   -0.60871417903658     -0.79173374815571     -0.19567179521987
  C   0.77954598745724     -0.73678985067912     -0.38386046493517
  C   1.32003324973327     -1.96401999599235     -0.86560922185837
  N   1.73706092564747     -2.93134821543983     -1.35096423521784
  C   1.70432417312774      0.27380353413642     -0.03157597859781
  H   4.64017311708027      1.44324028224184      0.96812360801913
  H   0.81486340960681      3.60574405747650      0.46424648972591
  H   -2.20428044147788      3.66944053599101     -1.29594445719506
  H   -0.64581608054229      4.40958562066427     -1.17907648824100
  H   -4.26177205948556     -2.71278589412276      0.62918498589625
  H   -2.95986570027223     -3.78323448937656      0.22376899859846
