26
Coordinates from ORCA-job ./opt_b97-3c_parallel
  N   1.56104119627300      4.18393210208289     -0.00368833786081
  C   0.94467440820578      3.20058155585955     -0.00260857833725
  C   0.17155524679890      1.99838637398704     -0.00187953586107
  C   -1.21249888148181      2.31126769888904     -0.00378423558173
  N   -2.35151941044255      1.66306750917724      0.00118404785958
  C   -2.69289620796867      0.38631093957814      0.00251652090279
  C   -4.04949105897986      0.02443522045378      0.00933707392469
  C   -4.09837620005377     -1.36317441002587      0.00449951807081
  N   -2.87434100646853     -1.93580803452165     -0.00451830293574
  C   -1.96845609386061     -0.92872347051964     -0.00522594465730
  C   -0.63927460360299     -1.29401204743602     -0.00738694687526
  C   0.56612618326036     -0.60868170265915     -0.00357676002741
  C   1.77737390630612     -1.32954598862400     -0.00269164001193
  C   1.94803987158073     -2.71574662096218     -0.00599214460148
  N   2.17121936194676     -3.85809739661242     -0.00813311980048
  C   2.87349166256614     -0.41300039242037      0.00322265153966
  N   4.16298131009190     -0.77433030395356      0.00589213346549
  C   2.34810086896604      0.88023870390277      0.00538279776912
  C   0.94686027583165      0.82457140540096      0.00107481088139
  H   -1.36790685060397      3.38675654109075     -0.00794760629523
  H   -4.86727714231515      0.72502686585451      0.01534305583495
  H   -4.98102354549159     -1.98620345828157      0.00682146520244
  H   -0.53340349199675     -2.37361193641564     -0.01081803851860
  H   4.42744314981229     -1.74313924611201      0.00391100846840
  H   4.89515560610930     -0.08981900731376      0.01021782239133
  H   2.93214872341727      1.78481971568116      0.00907930915365
