27
Coordinates from ORCA-job ./opt_b97-3c_parallel
  N   4.81783554139994      0.08217192352000     -0.05092674224464
  C   3.82371377218706     -0.51917735081798     -0.03790431848113
  C   2.66080038199959     -1.29616659502105     -0.02397032013241
  C   2.59366102516090     -2.71055707128525     -0.03287852481684
  N   1.34929223961069     -3.16060221184543     -0.01101890906786
  C   0.51350616039390     -2.06093382449807      0.00645894563154
  C   -0.82355773258548     -2.34912425277386      0.05113132186436
  C   -2.04622877168716     -1.64776463673789      0.06204547660769
  N   -3.13236873433039     -2.47361949291850      0.15999105644452
  C   -2.30473195346062     -0.24851104110415     -0.00765672596159
  C   -3.69982957409628      0.03610150944018     -0.07056803398156
  N   -4.84773007899485      0.20307121285941     -0.12607483178023
  C   -1.50463664726204      0.90985451224785     -0.01234602966122
  C   -2.10017122289677      2.17923663778223     -0.03918279537340
  C   -1.13165934040822      3.18333008289370     -0.01346292105603
  C   0.13028835791352      2.60177464949906      0.02483282337222
  C   1.35343977859449      3.28360696067387      0.05185731070725
  N   2.34550582344133      3.88763657937334      0.07561385858151
  C   -0.01147276205555      1.17135614953741      0.02076560810155
  N   1.07485435945984      0.46365019908856      0.01945866317261
  C   1.32653357319109     -0.83177621696356     -0.00104772811874
  H   3.43550140193281     -3.38617234207091     -0.05374481215328
  H   -0.95586164195528     -3.42499631132296      0.08124680137047
  H   -4.06552885359818     -2.12139441286996      0.04078734287000
  H   -3.01087623997718     -3.45880686617141      0.02108072164390
  H   -3.16106211431613      2.36162513231519     -0.06396836968171
  H   -1.32720336226102      4.24318058807032     -0.02117455745690
