26
Coordinates from ORCA-job ./opt_b97-3c_parallel
  N   -4.61515440952025     -2.09673091192963     -0.69094086847272
  C   -3.96604832288012     -1.17854203552781     -0.39221979489188
  C   -3.17561987444518     -0.08180719146292     -0.03954708736352
  C   -3.60203427090045      1.10865331219175      0.59863816253805
  N   -2.62342613750268      1.97113000645775      0.84249168966999
  C   -1.47626098407853      1.39869632849910      0.36143594930147
  N   -0.42203052847692      2.13705258272718      0.24968184545680
  C   0.84121202892139      2.04912191797856     -0.11925811459055
  N   1.32420548765051      3.18116884119649     -0.67487180346601
  C   1.77358017922258      0.98995248411866      0.13683461016626
  C   3.11727333163193      1.41398687338440      0.29032911932552
  N   4.18780437113697      1.85770905347183      0.37833632269357
  C   1.57137734884215     -0.39416100906823      0.16766130917046
  N   2.62806532509534     -1.19235184862072      0.37711830491726
  C   2.16785657725697     -2.43371783768580      0.11039896691367
  N   2.94385718142827     -3.51032745457089      0.20522225859586
  N   0.86539679172919     -2.52687515318325     -0.26245253951516
  C   0.41358798181229     -1.26434185779011     -0.21099076567933
  C   -0.95081796834876     -1.05476395042034     -0.41022443756284
  C   -1.77080381269941      0.01197537911939     -0.13479881542426
  H   -4.62195151510392      1.33541617819270      0.87428385505618
  H   2.30657904514569      3.28875984262781     -0.85798499458740
  H   0.76092223390572      4.01005512534767     -0.59988120671540
  H   2.57029241714719     -4.41729833071578     -0.00379827212838
  H   3.89809890356433     -3.41570177775606      0.49979364869082
  H   -1.46322652863450     -1.96903362488379     -0.68818938929804
