24
Coordinates from ORCA-job ./opt_b97-3c_parallel
  N   2.91216814620085      2.96978324788534     -0.00522059665265
  C   2.46823588366881      1.89414808614206      0.00311106898956
  C   2.05136384403648      0.56191431589647      0.01043222011671
  C   2.93803047553262     -0.53854206457495      0.00971213212048
  N   4.27592146128377     -0.45386061377112      0.02777345064819
  C   2.16686017838447     -1.72079625499581      0.00894489296392
  C   0.81105464650610     -1.41206512615017      0.00854329914966
  C   -0.15123548840155     -2.42010919821124      0.01042669654926
  C   -1.53657550368595     -2.48142820774330      0.01021867797496
  N   -2.54215811993800     -1.61405308679092      0.00435327802350
  C   -2.60370225110146     -0.31113047376311     -0.00054393835383
  N   -3.85450255476148      0.23582204078896     -0.00759193485762
  C   -3.70680525904363      1.56458681118654     -0.01087537275030
  C   -2.37060793825159      1.98327930215480     -0.00591241836998
  C   -1.58286227851909      0.83562763440630      0.00049748431429
  N   -0.26468563887940      0.94847506967417      0.00514595055174
  C   0.71148360148679      0.08278696553350      0.00866145482531
  H   4.72800316385752      0.44081246475555     -0.04023693791398
  H   4.84888986545987     -1.27120615187258     -0.06256398395946
  H   2.57026897421280     -2.72204026919350      0.01172974527074
  H   0.28905759923849     -3.41231269823359      0.01295337925857
  H   -1.90154686016733     -3.50565395431797      0.01441899444393
  H   -4.57971239915660      2.20293841702616     -0.01664351903290
  H   -1.98624244066215      2.98995793206742     -0.00689897971020
