28
Coordinates from ORCA-job ./opt_b97-3c_parallel
  N   5.72489581181971      0.67700992347081     -0.00317179163155
  C   4.72825373971987      0.07822775160680     -0.00215088180009
  C   3.51747722261257     -0.62458118092310     -0.00107991046401
  C   3.34321563279018     -2.01780990300116     -0.00035989441454
  N   2.05521399992724     -2.36854107240983      0.00044385197313
  C   1.32263741499180     -1.21746790446534      0.00029072126220
  C   -0.05360860965515     -1.37453424055491      0.00089040184260
  C   -1.15711881965074     -0.53919069310429      0.00095099688487
  C   -2.45033781574212     -1.11454991987946      0.00166775061218
  C   -2.77964555598796     -2.47209144893573      0.00224914643546
  N   -3.13155898764383     -3.58140988717817      0.00278028774941
  C   -3.43009367159696     -0.08275162785824      0.00169830765723
  N   -4.75415549573339     -0.28319815605936      0.00232980924000
  C   -2.75461548672482      1.14312112387206      0.00100396909710
  C   -1.37161623692405      0.92832572810496      0.00052596772892
  C   -0.47378395784609      2.01641983075810     -0.00021575283332
  C   -1.11905831865381      3.29425296047398     -0.00035153662488
  N   -1.62912122516556      4.33623798667329     -0.00046499947135
  C   0.92053820267188      2.15881344811018     -0.00088733966240
  C   2.01758339192133      1.31518229538849     -0.00110022519400
  C   2.21507136918248     -0.05544575825784     -0.00064731555117
  H   4.12627494459691     -2.76049777895155     -0.00044712749611
  H   -0.30825241295281     -2.42882299164915      0.00141653606567
  H   -5.39735856357638      0.48547301133987      0.00217302206675
  H   -5.13530285333207     -1.21234363282941      0.00267793512986
  H   -3.23176394214657      2.10853521071930      0.00087348609430
  H   1.21463444790717      3.20006853144226     -0.00139144700516
  H   2.95074350339114      1.86825494499743     -0.00177711479111
