27
Coordinates from ORCA-job ./opt_b97-3c_parallel
  N   -3.29366729921842     -3.12800425856478      0.20064928183942
  C   -2.34560491749233     -2.46146666135217      0.14073029550095
  C   -1.16057534549658     -1.66298323593962      0.07833541965567
  C   -0.01605205529727     -2.48759139636560      0.11920939463142
  N   1.27813807743086     -2.31535709790648     -0.00488871275736
  C   2.09607082012003     -1.28893712750703     -0.06455088851363
  C   3.47604455041834     -1.55755555793009     -0.20230649001568
  C   4.19174373578731     -0.37088870630710     -0.14198627050862
  C   3.30124486011491      0.69229392541345      0.03102583636103
  C   1.97874057861334      0.21182663706872      0.06404003218838
  C   0.88559243496338      1.08032730651440      0.10699673180346
  C   1.27008670005474      2.45808746769065      0.22243800803857
  N   1.57868346006097      3.57100623443936      0.32638014560639
  C   -0.51205111374200      0.91034734699647      0.02241568855442
  C   -1.35711834599087      2.02476812632643     -0.03507080400549
  C   -2.69641386943310      1.60416755852210     -0.13980545700048
  N   -3.77119445045698      2.41726106776514     -0.27002517584408
  C   -2.71079753721146      0.20316222651625     -0.13605158550161
  C   -1.39928201273234     -0.28329813144710     -0.03359232530034
  H   -0.27609270804631     -3.53681107355937      0.22550785418082
  H   3.86456769908945     -2.55752537623702     -0.29937326400301
  H   5.26411584065090     -0.27335019768445     -0.20972544823175
  H   3.58207505263500      1.72972750726776      0.10241836268298
  H   -1.03311878164714      3.05175468306709     -0.01761374065460
  H   -4.68992781618075      2.03452145197998     -0.13930380180496
  H   -3.67527649294023      3.39131054683214     -0.04737543614606
  H   -3.59372880685368     -0.41138045259918     -0.19300914315413
