28
Coordinates from ORCA-job ./opt_b97-3c_parallel
  N   4.16048146286884     -2.62590373247102     -0.00729633552868
  C   3.17702871298107     -2.01016172659540     -0.00587343741782
  C   1.90408624439212     -1.36146834786476     -0.00072165963782
  C   0.84331418695182     -2.31259564760727      0.01568615964553
  N   -0.45998750451453     -2.30855812051809      0.01608140707663
  C   -1.41674860464004     -1.38174817934521      0.01234594410231
  C   -2.73949542074092     -1.81280381635415      0.00828865638567
  C   -3.60957518992030     -0.70681000416522      0.01136162217562
  N   -4.95147437425176     -0.74005497796286      0.03272052846165
  C   -2.82579615617058      0.47205041119160      0.01952875396743
  C   -3.35958483731306      1.75977304788989      0.01457941597773
  N   -3.84261827000102      2.82054008511042      0.00774238284138
  C   -1.44598623594021      0.11638002221119      0.01771117487246
  C   -0.47731298201622      1.08339246396919      0.01335860435629
  C   0.92204547371172      1.08877017549538      0.00021450381113
  C   1.62959538054938      2.28037614106005     -0.00843168711103
  C   3.00408836680867      1.93577114324955     -0.02556863226471
  N   4.05243131596531      2.77017496491095     -0.05908303897765
  N   3.19286505468361      0.60467209062705     -0.02855507728450
  C   1.96877030696849      0.03275723949938     -0.01290614299779
  H   1.23848171678629     -3.32541880547225      0.02614856233345
  H   -3.02417115642550     -2.85199500698593      0.00908286671905
  H   -5.48013633713896      0.10891048696520     -0.06238487503440
  H   -5.44295777397513     -1.60409201950384     -0.09596923990176
  H   -0.88537984272229      2.08969426076591      0.01858763273839
  H   1.20372308269178      3.27101347684503     -0.00699734575190
  H   3.93867112904430      3.75770964442900      0.06542880363595
  H   4.97571582076720      2.38153782112619      0.01688033480737
