25
Coordinates from ORCA-job ./opt_b97-3c_parallel
  N   4.35216094099821     -2.19501119290970      0.03626082560841
  C   3.33521247946343     -1.63725250152580      0.02194694246169
  C   2.00333985908302     -1.11582515798616     -0.00399470376572
  C   1.04821079421681     -2.18041512424634     -0.06889207804761
  N   -0.24371063274302     -2.28548074739955     -0.05789977063634
  C   -1.26880640269117     -1.43170770618678     -0.01549314609528
  C   -2.55315822687409     -1.94880752662105      0.02446544129772
  C   -3.44241921081624     -0.85019138712800      0.02985640723080
  N   -4.77848294601978     -0.87656723028096      0.06165693601952
  N   -2.78942958936572      0.32804497388650     -0.01198857131308
  C   -1.46752587033874      0.05984828234364     -0.03096619254618
  C   -0.60059651885559      1.15232047690671     -0.04451687347525
  C   -1.27891239156306      2.41212736192765     -0.07551960057539
  N   -1.75338854507894      3.46962996121237     -0.10573635453367
  C   0.80783677067389      1.25909165512605     -0.01476877864662
  C   1.45621314712903      2.49039625366869      0.00531626979996
  C   2.83546791754778      2.23030712492105      0.06669460018156
  N   3.11674808997709      0.93058599294823      0.08370210126893
  C   1.92205610249060      0.26693406420807      0.03167660871922
  H   1.54023806347149     -3.14762336519268     -0.12320267560009
  H   -2.78657811991753     -3.00015652721654      0.03409361949453
  H   -5.28328353981928     -0.00798678766865      0.06993540906953
  H   -5.29082561195264     -1.73541463714556      0.11849675261002
  H   0.98377543343365      3.45697475713056     -0.01468357116991
  H   3.62921941785064      2.96270729352855      0.09872140464372
