25
Coordinates from ORCA-job ./opt_b97-3c_parallel
  N   2.86515423540478     -2.97407145642476     -0.01111720166850
  C   2.43412268656655     -1.89302860086181     -0.02398238516247
  C   2.02957755386027     -0.55685981470026     -0.03326081023155
  C   2.92755574962699      0.53778858470994     -0.02885606585646
  N   4.27294585659099      0.43778672097479     -0.07587802640037
  C   2.16532613434223      1.71712960233204     -0.01923634191532
  C   0.79919097857585      1.41270799330717     -0.01585439793797
  C   -0.15163368970623      2.42969091250903     -0.00795105195528
  C   -1.53745079486097      2.50956461793318     -0.00186669539583
  N   -2.54776127854744      1.64697538965825      0.00313423840945
  C   -2.60690891862496      0.33783039788981      0.00169223732945
  C   -3.87780268935868     -0.27981777242408      0.01086640375924
  C   -3.73713143974365     -1.66142613740863      0.00753220990969
  C   -2.37684072816146     -1.99019363100527     -0.00411441694693
  C   -1.59952534127188     -0.82325634593010     -0.00830717786912
  N   -0.28962863040506     -0.93897918848578     -0.01937721691508
  C   0.69276310959633     -0.06941373519494     -0.02385624184673
  H   4.69737225449551     -0.45896092480685      0.08660927592582
  H   4.83563513581497      1.23835959971267      0.14492131827117
  H   2.57000277329428      2.71795714341769     -0.02087277229114
  H   0.29974333242569      3.41708949063828     -0.00620570270039
  H   -1.89369181960924      3.53645439340335      0.00131024449192
  H   -4.79710981393088      0.28267482400657      0.01854266989358
  H   -4.54869251864750     -2.37318852664109      0.01280864354688
  H   -1.94724223462681     -2.97877342371074     -0.00947061554302
