33
Coordinates from ORCA-job ./opt_b97-3c_parallel
  N   -5.36641499681486     -1.00839406022398     -0.44952690823391
  C   -4.24766810580367     -0.73774790438960     -0.25901158888103
  C   -2.91131960112503     -0.41248862047170     -0.04206589396626
  C   -1.85548856988539     -1.32395055255500      0.15212815812984
  N   -2.05545205379528     -2.66608845668549      0.27089885004968
  C   -0.62133287009482     -0.61422305985391      0.21702815097602
  C   0.54940381474714     -1.34576678109766      0.34241275906643
  C   1.90601317472951     -1.10854394905842      0.20176890297144
  C   2.82435658883936     -2.19046406376503      0.25796499961459
  C   4.10416286457183     -1.75538409513074     -0.02999861536566
  C   4.03621516170933     -0.36887789387046     -0.27113117707934
  N   5.11579345750166      0.42130161342274     -0.55654153259059
  C   2.68359697199692      0.07525555345829     -0.10202379603796
  C   2.36539513566401      1.42431822970731     -0.07327539403021
  C   1.23771897252832      2.18434962419338      0.15482049129289
  C   -0.15497057440840      1.97383150529669      0.24250562475592
  N   -0.85777235049250      3.17076235245905      0.43921853834424
  C   -0.95003899755245      0.82096056887027      0.09811993601194
  C   -2.36326725776016      0.88927919542720     -0.08656262318078
  N   -3.15591839204182      1.98644590071596     -0.27517534624809
  H   -1.30168747462900     -3.27627774791113      0.01170405202591
  H   -2.95791008554302     -3.00430590799126     -0.01859509465439
  H   0.36768554384992     -2.39629271515131      0.54916824878608
  H   2.54002102220997     -3.21260814987554      0.46255730321777
  H   4.99615092904666     -2.36012980874079     -0.08457302851391
  H   4.94768220455527      1.24959000148233     -1.10014362985541
  H   5.95092596634604     -0.06239062378776     -0.83699996991665
  H   3.23958813149895      2.06398234246070     -0.16305707466274
  H   1.48455791806645      3.23809879889223      0.23688184621385
  H   -1.64173542327546      3.10261323780389      1.07007700241883
  H   -0.26870679316628      3.95048800367177      0.67745688777646
  H   -4.07060667041242      1.79030334916935     -0.65051262061472
  H   -2.70627130186130      2.79375457312877     -0.67806419702036
