27
Coordinates from ORCA-job ./opt_b97-3c_parallel
  N   4.95921912098340      1.00178990701662      1.18786685964051
  C   4.12587882485960      0.27238238922252      0.83381028519788
  C   3.11979968991193     -0.59844898913119      0.40531258533602
  C   3.22571065456461     -1.96163500979810      0.10233068879690
  N   2.09162815609488     -2.49669032989142     -0.37674854885428
  C   1.16051824401291     -1.51073835483688     -0.37836048124880
  C   -0.15678360384279     -1.84893286968034     -0.57969389914556
  C   -1.35759008447947     -1.18883413407628     -0.32710678738479
  N   -2.46003291768320     -1.95069209065314     -0.33175167380158
  C   -3.48430372464871     -1.16779528238714      0.10940808409578
  N   -4.71007545879773     -1.69286651164159      0.21053766260420
  C   -3.07563067275380      0.14289511072435      0.39227310100278
  C   -1.71782970619911      0.20976691013442      0.09322476972633
  C   -1.01797710494509      1.42557193328004      0.02411362728301
  C   -1.80138976565766      2.57819921003285      0.27912383209208
  N   -2.43625659385377      3.53339364863675      0.47216148316512
  C   0.34614598738018      1.72077966242064     -0.31039952862524
  N   0.60903679080667      2.94234191012771     -0.84169582893807
  N   1.42951720222999      1.02138087452254     -0.04378125408913
  C   1.79460513444311     -0.22157502773509      0.04190790534722
  H   4.11355497263430     -2.56629789316958      0.21423864795019
  H   -0.29890012125347     -2.89202714364091     -0.83138963181588
  H   -5.46951970469404     -1.18192210173364      0.61849515211649
  H   -4.83758731551325     -2.66852322982351      0.01014745729317
  H   -3.70141897836778      0.96097176161054      0.70536136068464
  H   -0.11359913407165      3.63629105033243     -0.91760756851289
  H   1.55824001223996      3.26694776403744     -0.77317877181601
