24
Coordinates from ORCA-job ./opt_b97-3c_parallel
  N   -4.50084214838422     -0.83102358159280     -1.17589416089562
  C   -3.59774176923989     -0.19606755259800     -0.81103121959558
  C   -2.51831539348415      0.57699258086204     -0.37194590539283
  C   -2.51695905987561      1.95349606514439     -0.05723533490317
  N   -1.35009872565725      2.38046226302857      0.42069192622431
  C   -0.49958394765652      1.30696705588703      0.40940587595617
  C   0.84073432886622      1.54190843006558      0.61692358601471
  C   1.97117493728872      0.79128616737894      0.30991218467840
  C   3.22917631991721      1.36357525062184      0.21150443784502
  C   4.11087079430398      0.48198917687725     -0.47446169643688
  C   3.44294225423348     -0.66355838862550     -0.81892596735660
  C   2.11085882986741     -0.59068604083661     -0.28949491240295
  N   1.37987852958876     -1.65540305526444     -0.22184074358085
  C   0.14344883664520     -1.85930282772148      0.28478118270812
  N   0.01539553996539     -3.03013046763331      0.95755192101747
  N   -0.96591064791728     -1.19211387139582      0.06098818671172
  C   -1.23159416724227      0.09532086217191     -0.03081147818348
  H   -3.35420913491421      2.62674803395129     -0.16673042894415
  H   1.03977205695843      2.56220408753219      0.92560520484726
  H   3.47302483390468      2.36531468856931      0.52983171268726
  H   5.14779248787689      0.69414628640020     -0.68572553756890
  H   3.84241795242601     -1.54380132532520     -1.29374669158088
  H   0.73893787243326     -3.71666503665292      0.83255878482299
  H   -0.92201935130374     -3.36539980764447      1.10172099382853
