27
Coordinates from ORCA-job ./opt_b97-3c_parallel
  N   -4.47136514993011      2.25764360947481     -0.52802173625689
  C   -3.84544900522326      1.30581571975120     -0.29385054621310
  C   -3.10978653745692      0.15198314318686     -0.00995714954424
  C   -3.58598573612270     -1.04540080114783      0.56195939291004
  N   -2.64596554696349     -1.97455117704183      0.74256350635892
  C   -1.47488264842548     -1.43431426684215      0.30661465505588
  N   -0.45282518002472     -2.21670656554813      0.13852891024985
  C   0.81879405023252     -2.10821537283250     -0.17865901324865
  N   1.33341154776493     -3.22521759820329     -0.75016806263784
  C   1.74276970140108     -1.04821474577883      0.12899854785200
  C   3.06833759842360     -1.49336770384526      0.35749099812664
  N   4.15518814098668     -1.86826755403154      0.53321783988835
  C   1.55837418507600      0.33556941650937      0.16240030671873
  C   2.61186230550764      1.21780142069815      0.38276481636361
  C   2.20648895348881      2.52631087993256      0.04763370048641
  N   2.97887092751939      3.61994236749188      0.11085471751693
  C   0.85793925008525      2.49847040280880     -0.37020306936890
  C   0.37056078064429      1.20038184594913     -0.26715612238412
  N   -0.92477279896514      1.00540422109371     -0.41545776416891
  C   -1.70577386868068      0.00052319627052     -0.11731168702304
  H   -4.61116498937796     -1.23884106424503      0.84342159131151
  H   0.77890339340735     -4.06158689428264     -0.69400855594225
  H   2.32216066229656     -3.32461073638653     -0.89672755837464
  H   3.61197291282714      0.93575522345647      0.66938503629615
  H   3.91063274515619      3.57780056774975      0.47971557076005
  H   2.62135523460362      4.52326443778776     -0.13736085968221
  H   0.24206191914967      3.34347539852425     -0.62957740665051
