27
Coordinates from ORCA-job ./opt_b97-3c_parallel
  N   5.22126523121027      0.01689511060047     -1.47232801244891
  C   4.22571424324653     -0.40012496355051     -1.04018947666139
  C   3.02915094398391     -0.90516396941836     -0.52251020692430
  C   2.74101119819832     -2.22611631132500     -0.15469263098602
  N   1.52551638357181     -2.38024915879462      0.39489921465497
  C   0.93595830617022     -1.15974925007702      0.39866506784411
  C   -0.42411819503428     -1.08902791858036      0.62641169497351
  C   -1.36103934756463     -0.10997887023718      0.33162932230536
  C   -2.72641101931939     -0.40336829848308      0.22966987863564
  C   -3.37113122758246     -1.59871979354169      0.54697675658057
  N   -3.97302109987387     -2.56419321519900      0.79685256611673
  C   -3.40083918760809      0.70534359460171     -0.40197807778624
  N   -4.71556848222678      0.71074924371870     -0.65398097564498
  C   -2.47421685338418      1.70992232502832     -0.65163843231421
  C   -1.21978098267198      1.31012693535187     -0.15991866068063
  N   -0.24594031196204      2.17192263540120     -0.01878110844387
  C   1.02033722575673      2.04750956330497      0.37083356358722
  N   1.49892057160627      3.07356394391704      1.11236552987977
  N   1.93890474296851      1.16557926434922     -0.01881489761387
  C   1.90808651101141     -0.13328959995375     -0.10295603018763
  H   3.40091577963958     -3.07269591011669     -0.27353212228591
  H   -0.83977499656702     -2.04706153941651      0.91869979220234
  H   -5.13527100206723      1.44439277880509     -1.19325253288848
  H   -5.27603884685658     -0.10002807211907     -0.45856942647635
  H   -2.68185756642631      2.69417294619658     -1.03594907297801
  H   2.49744676222875      3.17720380174999      1.16815839848684
  H   0.93427061884906      3.90206861778156      1.18030328475688
