26
Coordinates from ORCA-job ./opt_b97-3c_parallel
  N   5.62709654160384     -0.56137521724351      0.00827245991346
  C   4.58649438784407     -0.04251090743919      0.00576879320020
  C   3.32468564865227      0.56328459411142      0.00300366288139
  C   3.04186889843273      1.93627875697040     -0.00013367243891
  N   1.72820995006456      2.18818037386271     -0.00217711591109
  C   1.08825927951172      0.98703048205942     -0.00051026212294
  C   -0.29760933465680      1.02390085533353     -0.00230618774048
  C   -1.29177658975631      0.06553575754417     -0.00179848247738
  C   -2.64833839956914      0.44825506472528     -0.00452485824940
  C   -3.16589670961208      1.74612476361105     -0.00760705505319
  N   -3.66405634152105      2.79810752777667     -0.01026745291157
  C   -3.48006781446624     -0.71439206431475     -0.00372538840705
  N   -4.81913592073251     -0.68253597649116     -0.00598929131180
  C   -2.64791031257961     -1.83508508552576     -0.00041390749273
  C   -1.30321756240449     -1.43883142947211      0.00097730187667
  N   -0.38580475471642     -2.39042722308239      0.00435039470541
  C   0.93142280465716     -2.41883343810092      0.00644774615879
  C   1.97349773512565     -1.48594176810179      0.00577949037767
  C   2.06894871288295     -0.10771751308984      0.00288283174125
  H   3.76445119760111      2.73807433260069     -0.00092651455908
  H   -0.65757839625711      2.04710833675690     -0.00478215680938
  H   -5.35984479495534     -1.52623260783266     -0.00470518797887
  H   -5.31462913982415      0.19111153747921     -0.00772208609713
  H   -2.95595481344452     -2.86726362546681      0.00103078688267
  H   1.30396299438570     -3.44018346695773      0.00932320144599
  H   2.94106090213401     -1.97758621791283      0.00812136787752
