29
Coordinates from ORCA-job ./opt_b97-3c_parallel
  N   -4.84862860470558     -1.83920664747663     -0.39362237824364
  C   -4.18632229976179     -0.91615991162961     -0.14816296932754
  C   -3.42736683956512      0.21727045915081      0.15604397099049
  C   -3.88308592912286      1.38152309504638      0.83865012796714
  N   -2.95095133049014      2.30456513994690      1.02945740426644
  C   -1.80810792597092      1.80908440539543      0.46307075780815
  N   -0.81251668293583      2.59546026382085      0.24470113645032
  C   0.40082966871279      2.49664646929270     -0.26865752907581
  N   0.77937076834563      3.56306271958996     -0.99350016497468
  C   1.39320294395796      1.48813421018738      0.01377060395496
  C   2.71095885346652      2.00632079196856      0.01613986954108
  N   3.75319030378119      2.51623373217134     -0.05657938990837
  C   1.22504003050144      0.11053998943738      0.14995017518029
  C   2.28539886573674     -0.77812293596124      0.41447524989670
  C   3.56474822641093     -0.54117497503964      0.92590886026998
  N   4.63665962244301     -0.50873326171170      1.37764069921735
  C   1.89119205854902     -2.10208835036328      0.06035331204395
  N   2.65528214196816     -3.18118098910461      0.16172204569073
  C   0.55298073099843     -2.06866290694001     -0.39260100037313
  C   -0.15916414931169     -3.21382987360597     -0.75590895793389
  N   -0.64813313938140     -4.22566042615090     -1.05488225213082
  C   0.04887800509658     -0.75315785465042     -0.26263656589948
  N   -1.24289141502258     -0.57496622791675     -0.39215495453052
  C   -2.04621351912813      0.39416641504699     -0.02469287455509
  H   -4.89393346671590      1.53653055785178      1.18805600407610
  H   0.18814816990821      4.37606707202653     -0.98320030430432
  H   1.72266939679089      3.66164856667389     -1.32647970384759
  H   3.58828536111688     -3.11935920996659      0.53322253122446
  H   2.30560996042655     -4.08588206028913     -0.10389355767313
