24
Coordinates from ORCA-job ./opt_b97-3c_parallel
  N   4.75490825766411     -1.39514731116763     -0.59599411691637
  C   3.89951981103819     -0.64946538314550     -0.34529849996686
  C   2.90890796726759      0.28692426772619     -0.03513479111889
  C   3.11583534054557      1.56889625307226      0.54747116956707
  N   2.00120599640190      2.25444132377636      0.74367745751838
  C   0.97179925464781      1.46335546596594      0.30094294012505
  N   -0.19271207893717      2.00331274913748      0.16058859524959
  C   -1.41197882673481      1.62299220387461     -0.17182084864978
  N   -2.15628879672451      2.59486905728918     -0.73885471522761
  C   -2.06239859352668      0.38350887964583      0.15294916029937
  C   -3.44961623502447      0.51819980622028      0.41195779687673
  N   -4.58740012771286      0.65192767272375      0.60894000242646
  C   -1.55615038560343     -0.91691625077946      0.16960294372619
  C   -2.36461836726955     -2.03678283755132      0.36493516167113
  C   -1.61773704993394     -3.14828281970196     -0.03902991327907
  N   -0.37814335519387     -2.85006614719518     -0.44635232441817
  C   -0.22571355831389     -1.50767216301274     -0.30186885816620
  N   0.98164746830584     -1.03665520622292     -0.45334796528114
  C   1.51738846957422      0.12294331153179     -0.14163901030651
  H   4.07742632388291      1.98187768652631      0.81625779732530
  H   -3.13456134394096      2.46366302536617     -0.92597452281933
  H   -1.79622202032309      3.53319167108338     -0.71757865167182
  H   -3.39322915076226     -2.03409098561379      0.68538741405047
  H   -1.95324275292503     -4.17560811464065     -0.03883492591890
