28
Coordinates from ORCA-job ./opt_b97-3c_parallel
  N   2.39740059011037      2.81964748652652     -0.94010150755729
  C   1.59465416690532      2.07400474925673     -0.55103266822768
  C   0.50836420318080      1.24837211741270     -0.15529383960862
  C   -0.67819066733057      1.98443175112503      0.07260430083676
  N   -0.58017602119855      3.35514610934262      0.05091008804871
  C   -1.98090442721005      1.54666505222968      0.41646886544884
  C   -2.71437934791147      0.40203969523167      0.26573927594475
  C   -4.11723670454068      0.39333410600484      0.49352788192641
  C   -4.57572132696246     -0.83556090993693      0.07627107185815
  N   -3.58171532206618     -1.65393421773969     -0.36504042572166
  C   -2.43063673387407     -0.96395897502758     -0.25293036464347
  C   -1.25115465308609     -1.66073742485889     -0.45000968195220
  C   0.08672853337913     -1.37342740908463     -0.24539093459984
  N   0.93231105114918     -2.44087759751970     -0.27334082805697
  C   2.15483136144989     -1.98274979608071     -0.00562929416958
  N   3.21653213772290     -2.78723254989617      0.10050972906309
  C   2.17161837728555     -0.55917710215271      0.14924437966473
  C   3.33059023098618      0.12901391093626      0.51705248462667
  N   4.35358975187227      0.56572382081194      0.85986500027049
  C   0.84701840054597     -0.12443412135203     -0.01213500167959
  H   -1.41080774485131      3.88145024643053     -0.14791255311143
  H   0.27336977514533      3.78028164008816     -0.26943624108796
  H   -2.58058669438880      2.36782320177136      0.79669572921337
  H   -4.69864346777173      1.22362775857207      0.86099758359436
  H   -5.59772107011647     -1.18520088820059      0.07345742621340
  H   -1.41977283534983     -2.69859451425319     -0.70656675222931
  H   4.10965884273900     -2.42625239932982      0.38281967287227
  H   3.08240167518676     -3.78115592190766      0.06313733356393
