28
Coordinates from ORCA-job ./opt_b97-3c_parallel
  N   -4.79471253457661     -0.52830774165154     -0.73712336638014
  C   -3.82212223565299      0.06297002217090     -0.50099518315604
  C   -2.69734211568757      0.86763238762534     -0.27880145536425
  C   -2.71068006962034      2.27789700669397     -0.42401539534430
  N   -1.52154060709724      2.81687607167259     -0.23131250933044
  C   -0.63633226218370      1.78059894968722     -0.01490508134531
  C   0.64988671483285      2.17962550937587      0.27305011421622
  C   1.91964264362469      1.59866841108343      0.34844609679070
  N   2.90462916326196      2.43836003456423      0.80279429181053
  C   2.32555188391911      0.31265700465561     -0.11485982335372
  C   3.71135703812259      0.27230597268308     -0.44718130921146
  N   4.84232840998225      0.29411542153008     -0.71024733786146
  C   1.66926419552217     -0.91985557274021     -0.24215535462104
  C   2.40991089949841     -2.07584653593771     -0.55895437319585
  C   1.65381726563342     -3.21249520754390     -0.27371938470423
  C   0.41371982171767     -2.82560430101738      0.21081093282582
  C   0.31974802289210     -1.41220971298769      0.18516892739469
  C   -0.92282814548890     -0.79625279485348      0.30631054902761
  C   -1.95183224838333     -1.65941429693445      0.80008548759613
  N   -2.73982592045363     -2.35785615338778      1.28536482966112
  C   -1.35435313468136      0.50908697667393     -0.01623968207031
  H   -3.57510238830502      2.87558325650739     -0.67058195619049
  H   0.67184533288387      3.25781107727299      0.39126505235572
  H   3.86962086728196      2.19611845152460      0.65741396686773
  H   2.71677258076329      3.42492714300100      0.81096119168913
  H   3.43736880084244     -2.07775169277112     -0.88107656728254
  H   1.98247972168026     -4.23078272849940     -0.40928313182923
  H   -0.39693762072888     -3.48677400569825      0.46371281320511
