24
Coordinates from ORCA-job ./opt_b97-3c_parallel
  N   5.13734198745976     -1.00905764538868     -0.02722565388443
  C   4.17457677739758     -0.35669161221516     -0.01961452912785
  C   3.00368064389898      0.40949472103333     -0.01028218877579
  C   2.90310392479149      1.80559764958892     -0.00535557931939
  N   1.63448405937975      2.23303256910926      0.00391951817357
  C   0.83934418836070      1.13004038105274      0.00546468525016
  C   -0.52727713186067      1.34524704839635      0.01440214288970
  C   -1.63678749510067      0.51496163062821      0.01849692861744
  N   -2.83861717111651      1.11593715970648      0.02438692340811
  C   -3.78197240049911      0.13730825128629      0.01979394033743
  N   -5.07921266838727      0.47511121218867      0.04366182165799
  C   -3.21686062951564     -1.14686022489749      0.01222002202394
  C   -1.83437694939448     -0.98371717548315      0.01001180092626
  N   -1.05504099292459     -2.05786367151432      0.00377381397592
  C   0.24478238968014     -2.24464024273089     -0.00031215671479
  C   1.39706658821135     -1.44291393439539     -0.00425951181191
  C   1.66918574362285     -0.09147883303662     -0.00357409345008
  H   3.72604571441366      2.50437545199291     -0.00836919442323
  H   -0.78517318894277      2.39669087473325      0.02053741787754
  H   -5.32363218028565      1.44525632326553     -0.04492817552942
  H   -5.79898757953540     -0.21072711388353     -0.08042584680284
  H   -3.71936666564998     -2.09929376596110      0.01078156694824
  H   0.49412295515948     -3.30326892363699     -0.00277208277344
  H   2.29476671143700     -2.05305739073863     -0.01000662127315
