27
Coordinates from ORCA-job ./opt_b97-3c_parallel
  N   2.47456621790969      3.54960172343450      0.00101532111078
  C   2.54801702013227      2.38911395193743     -0.00111389899504
  C   2.64169152552129      0.99219509656393     -0.00374098145362
  C   3.82933131229106      0.23158083827232     -0.01229798781496
  N   3.59197883104961     -1.07426827678121     -0.01272927933727
  C   2.22920138164065     -1.23989603531859     -0.00491504574296
  C   1.77866378909562     -2.54752777894162     -0.00367022500856
  C   0.53407952150011     -3.16861351496745      0.00126589592810
  C   -0.77986930868582     -2.74202299118597      0.00614525464513
  C   -1.44689013453068     -1.51441567703743      0.01201484986558
  C   -2.84440357181212     -1.49353125097917      0.01530552270903
  C   -3.30851861921374     -0.16868906080349      0.02190909335916
  N   -4.58949336803415      0.24707441715462      0.06382136506432
  C   -2.17555108930685      0.68065530956297      0.02384842389076
  C   -2.27441322817418      2.07401011693842      0.01506681693656
  N   -2.43811229593395      3.22644646767485      0.00336033295860
  C   -0.99132773456520     -0.10835387921474      0.01712729112686
  C   0.24533083839103      0.50189740959741      0.01165185182503
  C   1.56738242053362      0.06726002863206      0.00119374403229
  H   4.83542851621255      0.62301010637257     -0.01799867077873
  H   2.61410228432432     -3.23736252407686     -0.00851862513712
  H   0.61599487740379     -4.24895936494658     -0.00085818026163
  H   -1.47936049068028     -3.57181295980255      0.00543232179963
  H   -3.47009400959574     -2.37267829047299      0.01830784768677
  H   -5.33176956387181     -0.39875775325158     -0.12948334189831
  H   -4.79545124696344      1.22036809362463     -0.07984938560822
  H   0.17116735466237      1.58575538851454      0.01686587639786
