25
Coordinates from ORCA-job ./opt_b97-3c_parallel
  N   -3.30995556251408     -3.05217975829274     -0.03336618083934
  C   -2.43018490315254     -2.29543782323154     -0.02400206731696
  C   -1.28285495832775     -1.44704084118778     -0.01209864726467
  C   -0.08169361317988     -2.18679749750364     -0.00708452325501
  N   1.20608928105019     -1.93165923712287      0.00350536052419
  C   1.93247951706617     -0.82799751640352      0.01372562795981
  C   3.31200812680592     -0.93833703045100      0.02353800201279
  C   3.89836608631069      0.34980856558868      0.03327048559497
  N   5.21507924112284      0.59634392518194      0.04452429591841
  C   2.88183873123788      1.32386294554830      0.02984994604467
  C   1.63779008510090      0.70189655134926      0.01803681612617
  N   0.55752754441260      1.44423724540461      0.01332703207285
  C   -0.73077647666384      1.17843721041857      0.00309476836734
  N   -1.58081456959643      2.22498001553525      0.00149447673902
  C   -2.80489441009464      1.66518691859883     -0.00921969904133
  N   -3.92013221892381      2.39577759337701     -0.01388298698573
  N   -2.85871546130418      0.30813896532939     -0.01514804908891
  C   -1.57817917157279     -0.07296654303346     -0.00794050419912
  H   -0.27556042897851     -3.25602512390406     -0.01354359497529
  H   3.83638533976788     -1.88027350480121      0.02334648970506
  H   5.88465844107917     -0.15025205357202      0.04414551825732
  H   5.56843792803229      1.53496404978666      0.04887245151183
  H   3.01382779253516      2.39350865478963      0.03540318772425
  H   -3.86353808059978      3.39659630525288     -0.00926491508058
  H   -4.81351605841358      1.94012259074265     -0.02171877801181
