25
Coordinates from ORCA-job ./opt_b97-3c_parallel
  N   4.07853138739180     -2.12746418340721      0.18292535874341
  C   3.41800259357498     -1.17385361600360      0.09388429700728
  C   2.61322581594949     -0.03467902112331     -0.01017689512744
  C   3.04363377860527      1.29584054304951     -0.21433805991014
  N   2.03306034589389      2.14901951461954     -0.28057561449371
  C   0.87223989512920      1.41848560428052     -0.12029643268637
  C   -0.28834764719899      2.15480646537722     -0.04677801559722
  C   -1.65976099399303      1.87084902772585      0.11338992818683
  N   -2.45059960144863      2.96208812271307      0.41197151791801
  N   -2.37188828629387      0.76184361522261     -0.03648695010330
  C   -2.13137787150743     -0.52468695314737     -0.08038372498138
  C   -3.21840431343037     -1.41153803691884     -0.25523297551099
  C   -2.77458537689488     -2.72248983920926     -0.13822642397372
  C   -1.39715963334350     -2.72424494175773      0.10148591305204
  C   -0.91579874270561     -1.40452480467298      0.11976365307803
  C   0.43340373034414     -1.14951729107314      0.17246502823035
  C   1.19766353661511      0.00439165445752      0.04324404672072
  H   4.06726803345400      1.62522322913069     -0.31113494982912
  H   -0.06746359108391      3.21304085012919     -0.12930880114867
  H   -3.43063900055897      2.83942523810826      0.22440257044629
  H   -2.08773564101439      3.88458229277824      0.25054951028151
  H   -4.23124819815628     -1.07511820947471     -0.40348887094243
  H   -3.39308567335393     -3.60368121855018     -0.21294811106088
  H   -0.77415969942420     -3.59787439121388      0.21615893421544
  H   1.03426463395011     -2.04746650003993      0.28482008028547
