24
Coordinates from ORCA-job ./opt_b97-3c_parallel
  N   -3.24256750500153     -3.13687232614168     -0.00115124103339
  C   -2.48878345297454     -2.25552657024248     -0.00094669770680
  C   -1.52300625966525     -1.19859150743108     -0.00049214057716
  C   -0.20118213154632     -1.74990864246498      0.00042415432548
  N   1.01495710315960     -1.28377375496189      0.00119942679430
  C   1.56817482589740     -0.08291937717891      0.00144316569512
  C   2.98705796552699      0.02790664041655      0.00243629997630
  C   3.89908913673074     -1.03489193086394      0.00326933813650
  N   4.67940780055772     -1.89528049775241      0.00420932422463
  C   3.28377152883170      1.39886790537717      0.00243140171130
  N   2.18078838438254      2.15478522729076      0.00153729368022
  C   1.10652340056689      1.31529318002552      0.00091612949661
  C   -0.14134365034281      1.91064829769850     -0.00002691582009
  C   -1.44235038175373      1.43966979931976     -0.00082377898303
  C   -2.50699752601558      2.34801779898093     -0.00166908990015
  C   -3.72690474353438      1.65387887911293     -0.00235856324577
  C   -3.46447735888095      0.29654085637387     -0.00196809376585
  C   -2.05965964408659      0.08300215312274     -0.00101900413476
  H   -0.22344977815572     -2.83581751974676      0.00051720555521
  H   4.26658302006619      1.84420057843627      0.00305692712847
  H   -0.06131085581771      2.99191104736913     -0.00014115627808
  H   -2.38702579805762      3.42006161856899     -0.00175866633339
  H   -4.70688003991020      2.10401044189094     -0.00307392480789
  H   -4.20221870937682     -0.48819495779995     -0.00232705423781
