27
Coordinates from ORCA-job ./opt_b97-3c_parallel
  N   -4.44657329368298      1.98389028752879     -0.23230816738171
  C   -3.83605880391584      1.00341654141527     -0.10028828491412
  C   -3.11396134484148     -0.18499678439288      0.05679883581816
  C   -3.65752450980659     -1.46124017422295      0.37036363627871
  N   -2.73065314678076     -2.39185976100535      0.47665023008740
  C   -1.51307580962030     -1.78269472480308      0.22175882148331
  C   -0.44126766740235     -2.62459378622338      0.12415306320147
  C   0.93489419020829     -2.44071541624076     -0.18645694029702
  N   1.59164204858422     -3.55708510207222     -0.59614719380052
  N   1.72431845599872     -1.39649256767336     -0.03220931887738
  C   1.60894449973030     -0.10004319157887      0.06858668181836
  C   2.78763442339301      0.67719829326045      0.28787545842737
  C   4.05712752272083      0.12493915338038      0.50592833436155
  N   5.10692725235706     -0.33971746617065      0.68376486171563
  C   2.47757958978447      2.03374906441512      0.16585421684307
  C   1.11630337593593      2.16896636529857     -0.11579269475986
  C   0.44461991712467      3.38513333656151     -0.29731607811667
  N   -0.12320635795233      4.38740082118154     -0.45390851132955
  C   0.50363908266687      0.87670674177384     -0.14095228402428
  C   -0.85938352208872      0.73630301038091     -0.20358256677622
  C   -1.71750372229195     -0.34874036930723     -0.02617121530062
  H   -4.70409770450831     -1.68344951346535      0.51569308240641
  H   -0.72639629602975     -3.65521113146265      0.30073874858100
  H   1.13373615378018     -4.44631743592422     -0.66502876701515
  H   2.59498224025860     -3.52387905375066     -0.64403869650971
  H   3.17671333193446      2.84746798433530      0.26153351117776
  H   -1.38563653295622      1.67652908306197     -0.34057420279738
