27
Coordinates from ORCA-job ./opt_b97-3c_parallel
  N   -4.79034850455961     -1.90357720393243     -1.11834879573571
  C   -4.13628362265710     -0.99424574896882     -0.80760886646854
  C   -3.35056780617320      0.09782198226609     -0.42698439217452
  C   -3.74720083730860      1.44415056245677     -0.28338502166193
  N   -2.78377517918003      2.22553229450135      0.21129946807572
  C   -1.67757535189152      1.44040272641258      0.35757804093643
  C   -0.47057988453376      2.03482599846012      0.64354241824709
  C   0.84924509134791      1.63003358365316      0.45809896500790
  C   1.85846136339087      2.59863726704183      0.45714266362297
  C   3.02093634058461      2.07675192458362     -0.11111312612172
  C   2.80444373281530      0.74746869038349     -0.46834419006421
  C   3.78638140698939     -0.03152900706352     -1.09616839182786
  N   4.64634793116945     -0.58496652703476     -1.64856151530778
  C   1.47163127800421      0.37363570303409     -0.05452377473628
  C   1.06441088817373     -0.93635877220593      0.08350698587775
  C   1.94006447314728     -1.99413846816978     -0.27890404978425
  N   2.56302975378204     -2.94927971890145     -0.50043088650535
  C   -0.19015869232011     -1.45825160644360      0.63321758687392
  N   -0.09997819871967     -2.55410700694207      1.41745387453749
  N   -1.39389151275865     -1.07768448220448      0.31767540681328
  C   -2.00980695651672      0.04303808030486      0.02676255810501
  H   -4.72145062551260      1.84438887287758     -0.51996384017237
  H   -0.58030752386469      3.08205857268751      0.90071288835015
  H   1.71401223804717      3.62342918850459      0.75920574371312
  H   3.94401053115327      2.60752878281215     -0.27749047050434
  H   -0.94622164700379     -3.07907060219494      1.56366383560652
  H   0.76928909130275     -3.05130753841840      1.50471678089916
