23
Coordinates from ORCA-job ./opt_b97-3c_parallel
  N   3.07120014619436      3.35741920028767     -0.01705275738246
  C   2.18253279378562      2.61198719999101     -0.01282667959360
  C   1.06024739922851      1.72601893399113     -0.00804113007980
  C   -0.15913436762511      2.47145787737805     -0.01668375118719
  N   -1.43145237868709      2.18619195372166     -0.01705726563399
  C   -2.13071189694370      1.06002675564073     -0.00951646912591
  C   -3.52554072643908      1.12243177803492     -0.01301792649762
  C   -3.99817911091365     -0.19538967387902     -0.00353725177085
  N   -3.01689938703568     -1.10559112742518      0.00588063898996
  C   -1.83428908051652     -0.42615940553436      0.00301888767377
  N   -0.74981502883983     -1.15154954124076      0.01124081928606
  C   0.53185129250415     -0.86761352980738      0.01176616993602
  C   1.44913556601621     -1.94896991938365      0.02247076996453
  C   1.09541440514714     -3.30526841097969      0.03254804696310
  N   0.85432848085894     -4.44134145571644      0.04098444674710
  C   2.76921095492664     -1.44923711286563      0.02135964853751
  C   2.72376097444687     -0.07127259957227      0.01015894879585
  C   1.37691908322485      0.37357118602407      0.00361561341970
  H   0.02404613630841      3.54183293226817     -0.02496199829660
  H   -4.09612108052602      2.03661253852535     -0.02154297504143
  H   -5.03073757232061     -0.51345419593467     -0.00326666525448
  H   3.65860758456684     -2.05742856902752      0.02820606237133
  H   3.58193678183712      0.57964933770435      0.00680068417718
