26
Coordinates from ORCA-job ./opt_b97-3c_parallel
  N   -5.44524453171848      1.40943693648308     -1.13545472679914
  C   -4.57712071853323      0.71196235196947     -0.80453291289605
  C   -3.54237987770261     -0.14547551662427     -0.41447492276466
  C   -3.58313534050787     -1.54770932163796     -0.33495525505930
  N   -2.45399246494168     -2.08829144503984      0.14457951811450
  C   -1.58979440576496     -1.06886866809890      0.36731213418282
  C   -0.25794511610295     -1.38023763759274      0.54672055288634
  C   0.89500779467630     -0.61536474983485      0.41830268401971
  C   2.15095838080661     -1.20731160635799      0.22396451575980
  C   2.47802716973458     -2.56206950585732      0.31861255335483
  N   2.80918504507337     -3.67555550789589      0.38487135571473
  C   3.08831458328478     -0.20875492884892     -0.20124380551758
  N   4.36084005588871     -0.43871007868933     -0.50692782755162
  C   2.42978747701098      1.03427034000839     -0.22361141779933
  C   3.06658918826354      2.24470904125943     -0.50905021159478
  N   3.66910106601356      3.20531063585844     -0.76590480521507
  C   1.09178245458312      0.85642586684151      0.21946270112935
  N   0.35973420942619      1.88029182489174      0.55937609075092
  C   -0.90706282019136      2.05772273798765      0.88541238072933
  N   -2.00458262047795      1.46566355606267      0.47011912773128
  C   -2.28204723131622      0.23998722420360      0.10894485084348
  H   -4.42081924915534     -2.17191168484760     -0.60754588008055
  H   -0.09313178018890     -2.44950035809407      0.61724226681890
  H   4.96065135242505      0.31033402281338     -0.80682043078262
  H   4.75590271308267     -1.35948779481212     -0.42818884282217
  H   -1.08462759976796      2.95724728025245      1.46740585134690
