25
Coordinates from ORCA-job ./opt_b97-3c_parallel
  N   -2.68513585519405      3.25287861945651     -0.00185957546560
  C   -1.83644231964850      2.46110011197473     -0.00509969228783
  C   -0.78280185632963      1.49574375666010     -0.00647440154296
  C   0.48091198018803      2.13375568478827      0.01105387833091
  N   1.73769963947119      1.75331825908075      0.01220596554480
  C   2.35138609690859      0.58760027192499      0.00644597782003
  C   3.75574133820958      0.56505165912295      0.00918685995384
  C   4.21471454308684     -0.75461814164755      0.00727312666416
  C   3.12660649455337     -1.62171758320906      0.00353064891724
  C   1.92524379580911     -0.88196949897645      0.00132870719447
  N   0.78667988828798     -1.52786388132335     -0.00745207928980
  C   -0.47883815215801     -1.14687558381379     -0.01863126930896
  C   -1.45616487871324     -2.14715441266237     -0.02900773523706
  C   -2.73556274146364     -1.56169549841327     -0.03883145508269
  N   -3.91528812804586     -2.22556320122495     -0.09135118144692
  C   -2.57891569654921     -0.16498845279133     -0.03963269823258
  C   -1.21864035016959      0.16432647840113     -0.02421162135991
  H   0.38578590451968      3.21573926612892      0.02332017899441
  H   4.35452424332000      1.46123213725081      0.01369764462892
  H   5.25202113157453     -1.05349978860680      0.00886552091260
  H   3.15134280550733     -2.69928813120253      0.00071405836648
  H   -1.22333194322762     -3.19955972290463     -0.03235999063596
  H   -4.76257129755486     -1.72513256447330      0.10822879363953
  H   -3.93262995051264     -3.20426523273016      0.13032977409497
  H   -3.38814542726938      0.54741768429035     -0.04992213087211
