30
Coordinates from ORCA-job ./opt_b97-3c_parallel
  N   -3.96721935960888     -2.64346453335004      0.70440665902863
  C   -2.95964670608047     -2.09526768811282      0.52350939362241
  C   -1.67997920421761     -1.49185048986555      0.39146376418100
  C   -0.64971381843619     -2.36436690793222      0.81446527458798
  N   0.61071458332020     -2.42045990511473      0.51849725482102
  C   1.54740867289501     -1.63480226192150      0.05355190118907
  N   2.65888878046426     -2.19180821664122     -0.46900054274159
  C   3.55678741799053     -1.20681414635124     -0.58418007466416
  N   4.75821469486046     -1.40292539572497     -1.11525722796330
  C   3.07413576339193      0.05464322395688     -0.08100679108411
  C   3.85571698931677      1.20873465899929     -0.14837520900804
  N   4.62054632040844      2.07640028767040     -0.28138737943454
  C   1.73083320346075     -0.16337237267887      0.24407876706238
  C   0.78786294519922      0.82851915980623      0.57081847039861
  C   1.34171065234270      2.06091324285566      1.02119945666258
  N   1.74674747164814      3.05715335835138      1.45779263593877
  C   -0.59856616402106      0.89047104453478      0.31168356709864
  C   -1.23129403037037      2.13000161770792      0.19124546635036
  C   -2.51030851620801      1.94894954637222     -0.34592156899027
  N   -3.38335048882938      2.89240188577969     -0.69657297553108
  C   -2.74779448193734      0.54329461555509     -0.49578935835284
  C   -3.94974292412630      0.07891835011512     -1.03613444677355
  N   -4.97147774061929     -0.13965870566684     -1.54886709691642
  C   -1.62373276265864     -0.15518315623570     -0.02897185799638
  H   -1.00070624221870     -3.21738190453582      1.38890015456482
  H   5.00539316170424     -2.31596194150567     -1.45313166508821
  H   5.43409925959314     -0.66087133267737     -1.16155245897357
  H   -0.76236512537096      3.08368481867263      0.36168587342073
  H   -4.27110666893759      2.64443262027835     -1.09970388224659
  H   -3.18893712195623      3.86558593895719     -0.55040697316324
