23
Coordinates from ORCA-job ./opt_b97-3c_parallel
  N   2.48689428657215      3.45275626107331      0.00298385219950
  C   2.46103905613378      2.29103065036573      0.00111846903049
  C   2.43368475242095      0.89066031904191     -0.00111472781473
  C   3.54824522155863      0.02770016925837     -0.00339242571708
  N   3.19401842340645     -1.25555209131547     -0.00515078175354
  C   1.82889890790525     -1.30149275428908     -0.00412106120446
  C   1.25511129499291     -2.55992608407461     -0.00570272593913
  C   -0.04512580381329     -3.07566490800382     -0.00550291709909
  N   -1.26828771144501     -2.58776499647273     -0.00367687317220
  C   -1.79132529952960     -1.38284442063252     -0.00124063084479
  N   -3.15573304561182     -1.33670672460759      0.00003446365347
  C   -3.52115978384072     -0.05919154938920      0.00245356022713
  C   -2.42068940725606      0.82112723586832      0.00291584730761
  C   -2.47429877409985      2.22063697820296      0.00527842808000
  N   -2.52025439220888      3.38199647215197      0.00729389001411
  C   -1.25742016136153      0.01634286194563      0.00058249776655
  C   0.00222315431346      0.58412321345707      0.00040461258707
  C   1.28515638711124      0.06285567575975     -0.00150309099533
  H   4.58541403636931      0.32592661662911     -0.00375146176836
  H   2.01378229795982     -3.33363040539684     -0.00757245853765
  H   -0.05056840687316     -4.16248732049127     -0.00730445711223
  H   -4.56177304712980      0.22781152194930      0.00385027250293
  H   -0.01664110797385      1.67066109066941      0.00216014179027
