25
Coordinates from ORCA-job ./opt_b97-3c_parallel
  N   3.82794490710125     -1.67398898021043     -0.26384825166177
  C   2.76469745920021     -1.22075522697644     -0.14753689611270
  C   1.43015497393785     -0.73487815065542     -0.02118636369262
  C   0.48297223193525     -1.78535984066299      0.06550004001155
  N   0.97975249048157     -3.07583012193275      0.15226484139048
  C   -0.92653731340943     -1.75143687907173      0.12343185767567
  C   -1.94229154381181     -0.83226110799778      0.04340164345275
  C   -3.29938005355548     -1.26059230186842      0.05520482788281
  C   -4.07465168756774     -0.12984829695847     -0.06121970550921
  N   -3.33154632691097      1.00777324289447     -0.13066507224605
  C   -2.03771370109548      0.63751535000634     -0.07261572619922
  C   -1.09058629469457      1.65163938154718     -0.05868715324563
  C   0.28298521453296      1.69322156400847      0.01391605270419
  N   0.82894726243856      2.94485524594175      0.03450952710587
  C   2.15629377178583      2.78803692203247      0.07344924029225
  C   2.54286489132825      1.44847710291098      0.06262446013630
  C   1.37125235702688      0.67793628922837      0.03466417318159
  H   1.95322161251622     -3.22912609790231     -0.04878974102359
  H   0.38368327056961     -3.81349411102322     -0.17701387406376
  H   -1.32554155036135     -2.75459592302289      0.24102492080185
  H   -3.63264549385274     -2.28368124080174      0.12880679434285
  H   -5.15220862410060     -0.07190138450128     -0.09700165706568
  H   -1.53440047941632      2.63800039994666     -0.10333412232390
  H   2.80906322378283      3.64822909416880      0.11010319407128
  H   3.55214596493905      1.07424602760049      0.08493785319485
