30
Coordinates from ORCA-job ./opt_b97-3c_parallel
  N   5.14788056022195      0.89969641451172      0.91367230082536
  C   4.04247751374582      1.07071830353486      0.59734295533442
  C   2.71128332584415      1.36625789031644      0.27300401812504
  C   2.18823866937571      2.68295076346654      0.22294448802972
  N   0.88996602045226      2.70645159868261     -0.01722485286782
  C   0.46775304373581      1.39920808714771     -0.07570221273282
  C   -0.88679022868376      1.22976892586010     -0.26388617484876
  C   -1.75931730627633      0.16015546414235     -0.13482194517068
  C   -3.14928508117484      0.35617463394192     -0.19004226656774
  C   -3.83238241786113      1.53313756856833     -0.50438869475867
  N   -4.46862021091549      2.47495333833209     -0.75569933669391
  C   -3.81996155789442     -0.85039436860854      0.21147631692864
  N   -5.15975410646438     -0.98675043740728      0.23437215388590
  C   -2.84925678712734     -1.79462121528381      0.50521349250311
  C   -1.56287955347658     -1.24671778077644      0.27107144942256
  C   -0.45700405898327     -2.05854845149988      0.35094564539497
  C   0.91083025005750     -2.00295242219260     -0.00324581461631
  N   1.47066519812293     -3.25473551317772     -0.10879330332043
  C   1.77905753043190     -0.89519410230335     -0.16813417726651
  C   3.06928458463452     -1.27536677901609     -0.62500346788924
  N   4.05979313162196     -1.68465756763570     -1.07545058116234
  C   1.62150936607052      0.49220075570341      0.07399449034365
  H   2.75368338478321      3.58928553149545      0.38057996960862
  H   -1.37281857990980      2.18091409261659     -0.44965542079536
  H   -5.74082602119700     -0.17330687420075      0.13075220291817
  H   -5.57485900105841     -1.77408866176794      0.69654008903026
  H   -3.03344678546355     -2.81559766826316      0.79938106571061
  H   -0.72864657645559     -3.06193435588543      0.66285538702206
  H   0.87260679131857     -4.01534883664446     -0.37381457969276
  H   2.41955640822598     -3.33795653965688     -0.43219410110089
