22
Coordinates from ORCA-job ./opt_b97-3c_parallel
  N   -3.29181136941202     -3.13368007957782     -0.00818707732607
  C   -2.49981330470558     -2.28639605716806      0.01525738320070
  C   -1.50848413728466     -1.25924157441275      0.05193037863930
  C   -0.21059121979068     -1.80336600289504      0.20475450840376
  N   1.00184592416304     -1.31701654166977      0.11132270251425
  C   1.52859337026137     -0.12025843291925      0.05689008439677
  C   2.93014418975463      0.02956704195566     -0.09920025353570
  C   3.85845046027923     -1.00519138248447     -0.26368911732314
  N   4.64629285225465     -1.84749304855848     -0.40147139748742
  C   3.20111765155884      1.40254740231934      0.00986173707389
  N   2.10413402779420      2.14257580133006      0.20510530827142
  C   1.03573419697016      1.30905024654172      0.21031852571116
  N   -0.14574324743872      1.86949068951196      0.25437481640591
  C   -1.36524204831415      1.41316230445968      0.12582479286296
  N   -2.34829647514036      2.34716730302298      0.11123825066852
  C   -3.50652500549183      1.70648653695809     -0.10384018180225
  C   -3.35837933425775      0.32309550014107     -0.22172317034833
  C   -1.99843462172289      0.04410250583552     -0.06802628936364
  H   -0.21727199855565     -2.87755313905337      0.35999744798449
  H   4.17659146276367      1.86244562841681     -0.03940936527047
  H   -4.42967858095693      2.26284488616880     -0.17303091448640
  H   -4.14309141412768     -0.39783753452251     -0.38144951519034
