23
Coordinates from ORCA-job ./opt_b97-3c_parallel
  N   4.96237850630173     -1.88007789982943      0.00000390275226
  C   4.17966321585288     -1.02121606768773      0.00019273411467
  C   3.22128721090933      0.00043363725749      0.00013744997993
  C   3.45661417856361      1.38021175602207      0.00026268244105
  N   2.31928276820340      2.08955347169443      0.00009246113611
  C   1.29003890612487      1.20704354730135     -0.00010759192757
  C   0.01084072526751      1.74403787447910     -0.00020468669298
  C   -1.25514536323448      1.19126855254995     -0.00018632533241
  N   -2.29418734853367      2.06303741579144      0.00005234017011
  C   -3.42824924972343      1.34891835579068      0.00041602264336
  C   -3.19261610016768     -0.03068527019769      0.00037973388196
  C   -4.15078864526738     -1.05238296379263      0.00062545950651
  N   -4.96704148875267     -1.87826063516283      0.00097492544394
  C   -1.77993363033868     -0.20843945931460     -0.00007406862479
  N   -1.29030267035904     -1.42855604776730     -0.00044603827057
  C   -0.07543989180745     -1.93620432581745     -0.00081176529872
  C   1.22988940568525     -1.42628380100414     -0.00052074855859
  C   1.80689318929314     -0.17166486906670     -0.00009962429746
  H   4.41930898154438      1.86725872156292      0.00045979472351
  H   0.00475882620822      2.82669839566338     -0.00016389339854
  H   -4.39101770553671      1.83627793901318      0.00068123583787
  H   -0.09375467484709     -3.02212940870517     -0.00129616529839
  H   1.96204541601397     -2.22771816168030     -0.00065613003132
