27
Coordinates from ORCA-job ./opt_b97-3c_parallel
  N   -4.69127978616435      2.24325382354714     -0.00151610353705
  C   -3.60604507888675      1.83286449040285     -0.00065737568676
  C   -2.25768588463854      1.35972277154578      0.00040832751158
  C   -1.34723268660634      2.45462023679468      0.00148614759369
  N   -0.04959965802582      2.61043922200214      0.00240412156228
  C   0.99005450174448      1.78982500892706      0.00294755601884
  C   2.26846032766378      2.34959594846475      0.00383398777629
  C   3.24386102555284      1.33852983231918      0.00444302454438
  N   4.57174932680835      1.49140039461910      0.00527768609017
  C   2.57522701067439      0.08182965085095      0.00397255270735
  C   3.25220074641179     -1.13943123824214      0.00454797837812
  N   3.92032515497997     -2.09170446121850      0.00534119826045
  C   1.17518337944906      0.29000154828545      0.00300249732137
  N   0.38623145456047     -0.75291995578846      0.00235594529633
  C   -0.91381269360787     -0.92095526637103      0.00121780581887
  C   -1.41978067675373     -2.24882160361143      0.00067015470320
  C   -0.63541353739858     -3.40967466319135      0.00131677590118
  N   -0.02117531128574     -4.39587263601234      0.00177158209821
  C   -2.82659169845739     -2.20740338748627     -0.00068706796222
  C   -3.24165022622196     -0.88718854748056     -0.00100532419399
  C   -2.12172024805374     -0.02715186786845      0.00016582187468
  H   -1.86914525063146      3.40718970329615      0.00143342810659
  H   2.44805247170028      3.41226214959319      0.00404826743342
  H   4.99356307883547      2.40089786749191      0.00592073550089
  H   5.18019680097870      0.69133668642966      0.00596344466788
  H   -3.46781664001192     -3.07366537356959     -0.00136579817191
  H   -4.26690229531541     -0.55753702782985     -0.00194892921384
