25
Coordinates from ORCA-job ./opt_b97-3c_parallel
  N   -3.52262536430091     -2.14343836666359      1.13108614077879
  C   -2.52859867015432     -1.70495891536300      0.72332691827886
  C   -1.25033075964417     -1.22720906834185      0.31267107910017
  C   -0.29352202254654     -2.23748877829433      0.34055690244344
  N   0.94383205275760     -2.32462327939839     -0.12615800311559
  C   1.93713403655479     -1.50628647252038     -0.26522169835606
  C   3.20068499360014     -2.02149962739986     -0.71031790589533
  C   4.16906500352011     -1.07625326436506     -0.49588164488487
  C   3.57055444261473      0.09143853669968      0.04436770752805
  C   2.19551076188126     -0.08305704528886      0.15503931366479
  C   1.31249990489233      0.99600337033986      0.31817184079260
  C   1.94956702857748      2.24611767773366      0.60573841806771
  N   2.56424759408367      3.18865422460698      0.88372033218060
  C   -0.06621223805842      1.10096766328234      0.10430015161719
  N   -0.53983214002149      2.37937230263573     -0.04527238442984
  C   -1.81917909125811      2.29197022514027     -0.35782107730926
  C   -2.27549974410319      0.94706040917131     -0.36322442650243
  C   -3.58265645570811      0.56756610278726     -0.69860928255893
  N   -4.67195166957339      0.33234698601522     -1.02720917792115
  C   -1.16156458069330      0.14239348507664     -0.05244079013053
  H   -0.67125080677646     -3.19453377748197      0.68403247453688
  H   3.32725334041913     -3.03419616801898     -1.05474706027608
  H   5.22405285910422     -1.18984053201778     -0.68862468183251
  H   4.09664660454328      1.00256307339058      0.27791273963623
  H   -2.41181569810992      3.16440173297775     -0.58558060980518
