25
Coordinates from ORCA-job ./opt_b97-3c_parallel
  N   4.62788739586894     -1.12117639427337      0.40795929781936
  C   3.47723453027233     -1.04336668343173      0.27941742014472
  C   2.05783974340723     -0.97810282103234      0.14687355216087
  C   1.47523359638151     -2.24340033407828      0.31291445107032
  N   0.30385153123929     -2.73384534815566     -0.02229027562615
  C   -0.88805168787697     -2.25558776556643     -0.21068513561833
  N   -1.85632049347389     -3.15415776176694     -0.60524370064021
  C   -3.01867196413482     -2.53412404989294     -0.48852728494467
  C   -2.89727918714381     -1.21119254490689      0.00312549171799
  C   -1.53948478848140     -0.95444157613050      0.13065401301204
  C   -1.03584554685387      0.35623950669962      0.32441308277146
  C   -2.03922832435415      1.24900932120589      0.81782618825729
  N   -2.88537594202432      1.86561259311602      1.31609520998766
  C   0.20685309826741      0.90925207440344      0.03562546630180
  C   0.39476624861457      2.32135820156539     -0.17218912614345
  C   -0.55585944532247      3.35348009091877     -0.20704856025678
  N   -1.25809031506626      4.27560369682991     -0.28872653320902
  C   1.72580786227746      2.55041091256551     -0.52728221004572
  C   2.41718899691023      1.34444639762398     -0.49997166700172
  C   1.54530721703634      0.29909661834952     -0.16944945565575
  H   2.17165672252594     -3.00756463011113      0.64261951936740
  H   -3.94144083996921     -3.03458556474027     -0.74428983946940
  H   -3.70360628513368     -0.52070938447117      0.18595666696394
  H   2.12999038091562      3.51430814046404     -0.78877047792455
  H   3.47204502191732      1.22752121211553     -0.68260145693905
