24
Coordinates from ORCA-job ./opt_b97-3c_parallel
  N   -4.53947605963615     -0.73223516994156     -0.10718181288293
  C   -3.20903586689679     -0.46704053288328     -0.04634178547119
  C   -2.15266709628605     -1.41005820844114     -0.04097533727466
  C   -0.97025294800314     -0.68062320239199     -0.02673522507874
  C   0.28407375378229     -1.30503553945442     -0.01887557856536
  C   1.58044422890433     -0.86455471018152     -0.00469495575982
  C   2.64658474208644     -1.79798025160874     -0.00077225897986
  C   3.85838997235169     -1.12530462178782      0.01616663961564
  C   3.61472890838396      0.25354703621261      0.02392982664921
  C   2.23428287179618      0.49885812875660      0.01166837506747
  N   1.82026534607176      1.75714759203374      0.01671527479444
  C   0.63679622466487      2.33232184084225      0.00658308770002
  C   -0.70380010795985      1.92460453886073     -0.01398706716188
  C   -1.39317482240467      0.72780406696148     -0.02897318170295
  N   -2.75819670773384      0.79299108417650     -0.03957814007459
  H   -4.86116249259283     -1.63053816718956      0.20408356019118
  H   -5.14768967077441      0.04078646204472      0.10258310134398
  H   -2.23773676923339     -2.48584279184328     -0.05312758420636
  H   0.20512618937912     -2.38913101298813     -0.02516874246808
  H   2.51122054936794     -2.86906455782279     -0.00989580529154
  H   4.83285383051816     -1.58966407351609      0.02228905560654
  H   4.34760604725042      1.04359376966130      0.03718275579574
  H   0.72342268448402      3.41691143943722      0.01489401632349
  H   -1.38836319612005      2.76532435386313     -0.02033193716978
