23
Coordinates from ORCA-job ./opt_b97-3c_parallel
  N   3.87045600081558     -1.81621184845496      0.28627323296678
  C   3.09047055291073     -0.96196187270001      0.17425965755558
  C   2.28153683386936      0.18025847806966      0.10085869077007
  C   2.81570971429238      1.47946269756245      0.34650971275699
  N   1.91854926682148      2.43423795418926      0.24981412998908
  C   0.70825233582935      1.83586392633666     -0.02102385192611
  N   -0.27009857292941      2.65810684692496     -0.27142801987636
  C   -1.57494668900508      2.59874222798133     -0.43570904277075
  C   -2.52591824467454      1.63235756415991     -0.13583784050433
  C   -2.46145536427615      0.27330972817339      0.13975949750607
  C   -3.61862270721109     -0.47161084284407      0.39920699115732
  C   -3.25585375923572     -1.81968987125120      0.35584239811614
  N   -1.95908935464401     -1.98970343890469      0.06812808217559
  C   -1.40544852895886     -0.75295456996081     -0.03828421684375
  C   -0.02053648012365     -0.71199820703706     -0.22769735916030
  C   0.53453334510105     -1.99350809254601     -0.53549757317172
  N   1.00399887107139     -2.99476296630426     -0.88304293583122
  C   0.89930792159826      0.34870722122158     -0.09350012150152
  H   3.84908479246334      1.68668991237531      0.58214608494305
  H   -1.99589816816536      3.54802431600048     -0.75582476765746
  H   -3.53576154845077      2.02889017309719     -0.13515548890810
  H   -4.60450593498085     -0.06397202256315      0.55622622692211
  H   -3.89274804931864     -2.67595343752543      0.52048812909580
