26
Coordinates from ORCA-job ./opt_b97-3c_parallel
  N   -2.85651819631580      3.03989397371681     -0.42928650450267
  C   -1.97604616584873      2.29752183675890     -0.28158683919908
  C   -0.85076058884116      1.43443365524615     -0.15969347823357
  C   0.35525682228564      2.13450862176777     -0.30512031252919
  N   1.61409920118192      1.86587234587311     -0.04339293861926
  C   2.34277374532161      0.79359494307714      0.03350983043816
  N   3.62972306587674      0.90135957102763      0.42177255167478
  C   4.19109941279562     -0.30493107724341      0.21721776985427
  N   5.47458993625185     -0.50178501307428      0.51620195089264
  C   3.29116374257944     -1.27317413135503     -0.31468175988195
  C   2.06275618643796     -0.66041511039985     -0.38670444435620
  N   0.96302803880710     -1.36492661427482     -0.61762354088954
  C   -0.30247172199742     -1.15667840976318     -0.40913020563705
  N   -1.11926119434485     -2.24784118991804     -0.48959975638898
  C   -2.32078853626669     -1.87247090025277     -0.07703311063814
  N   -3.34687004934050     -2.71299112329652      0.02280159711511
  C   -2.38703582501771     -0.46476276688892      0.25627934864775
  C   -3.55338281272713      0.11308019242695      0.76463786617786
  N   -4.57827578834533      0.43398957284184      1.21298612935133
  C   -1.12849031075823      0.05656710163628     -0.00452805546653
  H   0.20969316692807      3.16988552713750     -0.60123125903218
  H   6.01158841258078      0.26492002117934      0.88276167642235
  H   5.93836556518700     -1.36768560422524      0.31626243396943
  H   3.48709706273522     -2.30961503639695     -0.53327511673473
  H   -3.21932836286943     -3.67854470422850     -0.22213799752038
  H   -4.23856366809132     -2.40640695167341      0.36909078598444
