27
Coordinates from ORCA-job ./opt_b97-3c_parallel
  N   -1.00329652678511      3.56056288739185     -0.12477141046576
  C   -0.74273069846127      2.17708842499856     -0.04957813438486
  C   -1.89154624949682      1.37586972181393     -0.07048977483810
  C   -2.17461928767933      0.02860836539099     -0.04315271359402
  C   -3.52177790786681     -0.40117894595508     -0.06216445736315
  C   -3.57749897291960     -1.79117379707938     -0.01098834045251
  C   -2.27999225051484     -2.29637503922246      0.04068514414585
  C   -1.35404137040675     -1.23307192616578      0.02166208695571
  N   -0.06844565287094     -1.51807757012596      0.05151608527427
  C   1.03231615076516     -0.79795747252702      0.03296618283258
  C   2.26890092194114     -1.47128140435380      0.05812683310462
  C   3.31368528821206     -0.54351485060225      0.01649780958607
  N   4.65229427835399     -0.82842326789289      0.07475422288959
  C   2.75521218440817      0.74712022157351     -0.02371795437667
  C   1.35513212395581      0.67016048523289     -0.01887292307040
  C   0.60763864564097      1.83616137056142     -0.04265592019484
  H   -1.89249177907453      3.83524025043813      0.25936254232416
  H   -0.26899581097183      4.14078350708918      0.24637949284406
  H   -2.80071788369181      1.97064039042858     -0.12101108793325
  H   -4.36839799878368      0.26764833151167     -0.10624705922335
  H   -4.48238304379878     -2.38023469694518     -0.01181966390326
  H   -1.98111494980605     -3.33081323797109      0.08394088729392
  H   2.35427757717045     -2.54521559316998      0.09930624120917
  H   4.92306608396978     -1.75976140242351     -0.18935027526296
  H   5.27786564076377     -0.12291628979643     -0.27412579083995
  H   3.31744027191246      1.66957305352479     -0.04965758313803
  H   1.24983696323441      2.71356332527535     -0.06699125791890
