35
Coordinates from ORCA-job ./opt_b97-3c_parallel
  N   2.00581488686040     -3.21268021371860     -0.63632949444881
  C   1.19107268122424     -2.13286853172675     -0.35547570280518
  C   -0.15402868221745     -2.36352777063847     -0.65132695681016
  C   -1.33751191524761     -1.74611825099852     -0.24013758348780
  N   -2.43267953396817     -2.60323980115053     -0.19078354990586
  C   -1.58521339351368     -0.39975429332372      0.10152180298203
  C   -2.84834785472629      0.07963509289726      0.54357652140042
  N   -3.92979609004562     -0.63717896264546      1.00373597319126
  N   -2.98811391599416      1.41053725743199      0.41169506916386
  C   -1.84922102412381      1.85390394004200     -0.14469459116855
  N   -1.72501833117806      3.20331732565603     -0.37294918813818
  C   -0.88876852560682      0.81109520014001     -0.34125448740288
  C   0.45901447309064      1.09036809245613     -0.59875335708209
  N   0.71902485419419      2.30902408912889     -1.23634588577502
  C   1.60248343874025      0.41430912739361     -0.09635330555742
  C   2.75770311542756      1.11403118196007      0.36094451278911
  N   3.00488170784137      2.48580670439536      0.30481782371070
  C   3.65625502430388      0.19176764622739      0.92360262908288
  C   3.12050041232920     -1.07548829707455      0.77515291638382
  C   1.84667284494355     -0.99067847797487      0.15974025510311
  H   1.63646802634273     -4.13721933080430     -0.49680375441210
  H   2.98776189348351     -3.10983808707668     -0.46037181266187
  H   -0.31611422523166     -3.31730650179643     -1.14562379021112
  H   -2.26481099659526     -3.52339111900279     -0.55858474751907
  H   -3.32013135242398     -2.21821242351195     -0.47709696685880
  H   -4.60655597145338     -0.04377598588369      1.45744862852634
  H   -3.70442671101631     -1.46665788009655      1.52988581881414
  H   -2.39890377745781      3.73324218422779      0.15832553468672
  H   -0.78528634888565      3.56624197456689     -0.31229132386855
  H   0.02451472927837      2.56431154941918     -1.92014911794484
  H   1.64847614123959      2.37117251382433     -1.62044112171990
  H   2.17546112405836      3.05957662132916      0.34974708578034
  H   3.67764124312615      2.78115062842465      0.99512222200529
  H   4.58981688921940      0.44514115453057      1.40336820761438
  H   3.58203170637948     -1.98122619182694      1.13915014504346
