26
Coordinates from ORCA-job ./opt_b97-3c_parallel
  N   -4.67286604975305     -1.46865313590785     -0.46304685091438
  C   -3.45664641000181     -0.91462212184783     -0.25806841012506
  C   -2.39160011011020     -1.56445184340048      0.42768646836984
  C   -1.26757994304453     -0.75778755354127      0.38599614157639
  C   0.00223286303328     -1.24226487990408      0.66743224113221
  C   1.26464004515261     -0.78708576044851      0.33172328463388
  N   2.30895747399169     -1.64321905003184      0.32920644777515
  C   3.29579833274843     -0.93787112342363     -0.27051080460928
  N   4.48886978318178     -1.49761067234029     -0.53061369463549
  N   3.02983436951345      0.33912625866269     -0.62122601108320
  C   1.75997282068802      0.52324314021161     -0.21956970441647
  N   1.24701182279697      1.72881083610401     -0.17382096308770
  C   0.03230484402268      2.17036019910742      0.09745647196578
  N   -0.00135851642058      3.38041192553075      0.72835766832174
  N   -1.17295292516973      1.73298223737270     -0.28385709358930
  C   -1.71856565025079      0.54687851103914     -0.27027070935023
  C   -3.03354097317959      0.33730835150967     -0.71046993800709
  H   -5.41378220681452     -0.90186540214039     -0.83326404557970
  H   -4.96021088417444     -2.24316902513406      0.10684937383125
  H   -2.41342889904042     -2.58340613302719      0.78281669202407
  H   0.01998556271695     -2.26059737557719      1.04055585712586
  H   4.71449262677249     -2.36399925713344     -0.07790947639665
  H   5.23869377609807     -0.89738094433282     -0.82016905026198
  H   0.85917102782694      3.90044880090775      0.73245446592919
  H   -0.85442645625863      3.90505839655955      0.64459529706691
  H   -3.64556089362490      1.09711084628556     -1.16772877109601
