24
Coordinates from ORCA-job ./opt_b97-3c_parallel
  N   5.39398842725551     -1.50782579841591     -0.25853026737602
  C   4.49262607829187     -0.77978255199703     -0.17468924308080
  C   3.42867909243294      0.12465145270613     -0.07587909967639
  C   3.51569394738238      1.52600999577814     -0.01264381781450
  N   2.33285085645714      2.13274207270581      0.10117430184398
  C   1.37287837986266      1.17263012905347      0.11182400659300
  N   0.13718928135734      1.58711902176105      0.12163643115100
  C   -1.03314323942019      0.98565597304089      0.06727454271542
  N   -2.11175152407039      1.79131867820616      0.03817591175441
  C   -3.20473058652294      1.01050555685122     -0.03336824876325
  N   -4.42615465741960      1.53268104668135     -0.08453766335746
  C   -2.87328317194960     -0.37597257926026     -0.04394289265098
  C   -3.79516095572146     -1.42227090124691     -0.10252430270942
  N   -4.59859871552450     -2.26282173219317     -0.15165369661440
  C   -1.47339078877551     -0.45173011568936      0.02366734775905
  C   -0.81073679844298     -1.66633703735789      0.10112727341455
  C   0.52069982542659     -2.06635471468034      0.16178464210616
  N   1.69192277617547     -1.46028263775831      0.07731965767277
  C   2.05789412897651     -0.20528290972754      0.03129965748699
  H   4.42916405490558      2.10186339979621     -0.04334070720692
  H   -5.24448480189889      0.95380924861721     -0.14132322218995
  H   -4.53292059968849      2.53157234210205     -0.07009328359082
  H   -1.48478366013568     -2.51638823268430      0.12004963767901
  H   0.63179789454694     -3.14224556599322      0.26155982905461
