25
Coordinates from ORCA-job ./opt_b97-3c_parallel
  N   -4.01507022324978     -2.14207813874319     -0.32322750388495
  C   -3.37244351240933     -1.18443481646196     -0.16560856762449
  C   -2.57603746094681     -0.05049590599015      0.01658684002261
  C   -2.99125458742184      1.23380018468171      0.39359816616571
  N   -1.98013914349631      2.10396131669855      0.47841217489931
  C   -0.83731888893179      1.42697272451199      0.18061368337888
  N   0.25631651671051      2.14906841533659      0.04813478983456
  C   1.53380273816849      1.93653982499471     -0.12589219144416
  N   2.22623232857102      3.04440334211809     -0.54625442419519
  C   2.35637777938308      0.79465621543395      0.13982373582206
  C   2.13969984790996     -0.55012514919473      0.16454471552075
  C   3.23322602347952     -1.45022481124538      0.36009651255480
  C   2.80652810106198     -2.73929086840411      0.13005058646830
  C   1.43324973684005     -2.71592274751430     -0.18762825410517
  C   0.96258023235530     -1.40166795021588     -0.15715835625655
  C   -0.39283576108492     -1.12622321863311     -0.27245989409171
  C   -1.15410156832703      0.00649348328779     -0.08624939647748
  H   -4.00715619473203      1.53911011865494      0.59463673600764
  H   3.22666569140236      3.07600408965836     -0.47428066654963
  H   1.73550065549957      3.91988250673705     -0.48213559637181
  H   3.38987906623376      1.06437850787463      0.33741754119893
  H   4.23828394565742     -1.13850834607451      0.59755884176868
  H   3.41828261601493     -3.62634689230496      0.18518856817742
  H   0.81554886434778     -3.57881608118362     -0.38269365385972
  H   -0.98607687483523     -2.01575959182234     -0.46422683075872
