25
Coordinates from ORCA-job ./opt_b97-3c_parallel
  N   4.58003577899283      0.86406549647990      0.09348906185045
  C   3.27070085028987      0.46910317499957      0.03243577598945
  C   2.80008068682345     -0.84826391813639      0.02718756575121
  C   1.39265360306399     -0.85097643883048      0.02128456797311
  C   0.69972333317730     -2.05035206971528      0.01115564796801
  C   -0.63556204443566     -2.44808303208733     -0.00058560874531
  C   -1.85612993466493     -1.79906348272316     -0.00868443149612
  C   -2.27675131433227     -0.47061822363951     -0.00690032986208
  C   -3.64128461023921     -0.13214425472660     -0.01778214694692
  C   -3.71425467340613      1.25820998450004     -0.01165656841183
  N   -2.50328532524725      1.83791980054075      0.00256075179769
  C   -1.58312642292544      0.82613807919160      0.00605320260236
  C   -0.25533795434181      1.21536120365039      0.02021628256872
  C   0.97547197394688      0.57361984430293      0.02664477634055
  C   2.15423516468289      1.32719514065326      0.03663567855586
  H   4.78356353553279      1.80154160841220     -0.20625891015696
  H   5.26881459814292      0.19576337927740     -0.20493189738622
  H   3.41333263135811     -1.73703549036977      0.03008850609942
  H   1.37465251647165     -2.90133520847954      0.01311965653754
  H   -0.73970919018439     -3.52709869553115     -0.00514703577437
  H   -2.69306600724014     -2.49089605275892     -0.01840778359848
  H   -4.46230638375019     -0.83246475184303     -0.02846798397692
  H   -4.60858593553311      1.86509981563252     -0.01691574193320
  H   -0.17907744079091      2.29769783055952      0.02753323008764
  H   2.19047920440877      2.40631183234108      0.04803932776640
