27
Coordinates from ORCA-job ./opt_b97-3c_parallel
  N   -4.59716644589628      2.57025108957927      0.36597608218755
  C   -4.12729015703146      1.52202746312439      0.18172505785148
  C   -3.52654510503324      0.27881148157558     -0.03676972088837
  C   -4.13021442612706     -0.89462340226321     -0.53639141045124
  N   -3.28388064822338     -1.91686940178138     -0.63477590591455
  C   -2.06530303844156     -1.46947811522641     -0.21536434791768
  N   -1.11990712199566     -2.35741920793434     -0.03767845231608
  C   0.14481725910973     -2.35188350130043      0.28127567525982
  C   1.20352124536353     -1.40767179916533      0.20652771738987
  C   2.45488399593651     -2.06592901900459      0.39140380471934
  N   3.42162864100091     -2.67159502298860      0.60492341480058
  C   1.24438140424890     -0.01873520485292      0.01932939606663
  C   2.43792548375487      0.70474317230545     -0.18280144525443
  C   3.72712444966984      0.28062991317401     -0.52455046150895
  N   4.83413747980478      0.12270971685697     -0.84542398643045
  C   2.16911757093218      2.10099042210146     -0.05196864620506
  N   3.08518183450417      3.06262081711474     -0.19049224607870
  C   0.80359124055589      2.25348285919218      0.22882813617591
  C   0.18307555151935      1.00341627174039      0.23290199108806
  C   -1.20435915932279      0.94897941752332      0.33793927131633
  C   -2.15193642017065     -0.02630836074358      0.12458043863114
  H   -5.16899175651727     -1.00157829902315     -0.81097017503286
  H   0.49905058393518     -3.33687421740169      0.57239709767458
  H   2.84391621712104      4.03211448684688     -0.10692553022626
  H   4.03661643948876      2.83302755819072     -0.42267384150199
  H   0.29193600280418      3.19227067556338      0.36851255379261
  H   -1.63922064190630      1.93026463374451      0.50150425731588
