20
Coordinates from ORCA-job ./opt_b97-3c_parallel
  N   -4.46792577371393      1.14943712683755     -1.02859968376150
  C   -3.56205342312965      0.51069802842058     -0.67935427668782
  C   -2.48533959201375     -0.27753584201632     -0.26125747179362
  C   -2.50506639913680     -1.67833200589789      0.00461384155300
  N   -1.36405824338322     -2.15792036176701      0.46875700585484
  C   -0.46867948985676     -1.12000991776252      0.47230195299514
  N   0.79289492895185     -1.39593409816278      0.58454732874202
  C   1.86861167545034     -0.66753243448984      0.28903536008766
  C   3.09561100065217     -1.25871343006155      0.08626957892541
  C   3.92240490218955     -0.29032112855253     -0.54854011870459
  N   3.34138712012859      0.88251112383510     -0.74221300982916
  C   2.08908904635572      0.78431477295464     -0.17826151857806
  N   1.41171966937425      1.85725064259152      0.02993626191956
  C   0.20444705497049      2.05676608285439      0.56454035886038
  N   -0.91512565598822      1.42283401339308      0.37030196114037
  C   -1.21509151050839      0.16890462697660      0.11843175945986
  H   -3.36436735828719     -2.31957926874343     -0.12940141539147
  H   3.33098453960942     -2.29001014341044      0.28929336549232
  H   4.94173882336559     -0.44844228747219     -0.87394200921925
  H   0.11749084926924      2.99252966917436      1.10883773203452
