23
Coordinates from ORCA-job ./opt_b97-3c_parallel
  N   -4.61681173601218      0.87466160002687      0.75502085011871
  C   -3.70925284487332      0.19167655486621      0.50171547326065
  C   -2.59248470396450     -0.58942611376226      0.19238952444416
  C   -2.56374284869351     -1.95310149858676     -0.14785881957402
  N   -1.34391917169421     -2.39900568937355     -0.43789801322117
  C   -0.47997020903319     -1.35213009230576     -0.29498117628372
  N   0.79435869837005     -1.61932032762353     -0.41067814924259
  C   1.87594001350322     -0.90498515285867     -0.17202031945555
  C   3.12488529287540     -1.51362653551931     -0.10249312229040
  C   4.03014359339224     -0.54209945874561      0.34723006675242
  N   3.49114010905250      0.67007954847724      0.52208311859117
  C   2.17265496895470      0.56186608090856      0.19784938831000
  N   1.48608261870156      1.65897896391653      0.13132085183220
  C   0.21641667223961      1.96836122073441     -0.09776400101069
  N   0.04569117635546      3.26578350119934     -0.45554417988616
  C   -0.96920203911205      1.22190332638644      0.10798114112375
  C   -1.25697974415106     -0.11637758408877      0.07090138502358
  H   -3.41884925559896     -2.61209409017659     -0.17932267954579
  H   3.31247334899538     -2.55474014991702     -0.30390878299707
  H   5.08145047530273     -0.69422493509529      0.55001325005591
  H   0.84302620732787      3.87601116226465     -0.42916266826841
  H   -0.86259308734623      3.65456826774375     -0.62682370650553
  H   -1.83779031669149      1.84935346172915      0.28327234216856
