23
Coordinates from ORCA-job ./opt_b97-3c_parallel
  N   -4.52306286623792     -0.74163260551290      0.08081499970892
  C   -3.20248599841954     -0.46602241931762      0.03329164170817
  C   -2.13813840593533     -1.40722468216360      0.02950407546748
  C   -0.96445301660728     -0.67558015755117      0.01925889292017
  C   0.29304806873256     -1.29198079861380      0.01335403508106
  C   1.58284886653153     -0.83356148878437      0.00308016601322
  N   2.56446582820521     -1.79235235290561      0.00051336461562
  C   3.73334800808745     -1.14542694872336     -0.01116816163441
  C   3.59163992980502      0.24699014790461     -0.01728149191886
  C   2.22447057883519      0.52473122909698     -0.00862335818506
  N   1.81446184488496      1.79336126056014     -0.01253964802033
  C   0.62988041178668      2.35293876299851     -0.00505731064627
  C   -0.71439253037265      1.93600135294399      0.01036667190980
  C   -1.39748781805146      0.73968702881348      0.02140592098296
  N   -2.76114189344209      0.79700658694369      0.02903725895906
  H   -5.15489309656070      0.02139453952590     -0.08861277139276
  H   -4.84804184805596     -1.65879625405049     -0.16166309062843
  H   -2.21827735974042     -2.48301515734962      0.03840684693831
  H   0.25568730738682     -2.37611608763099      0.01744242793716
  H   4.66003372180679     -1.70269842030262     -0.01503271743692
  H   4.36477194294394      0.99711312719181     -0.02694598733987
  H   0.70383015433534      3.43892424252917     -0.01127879650630
  H   -1.40140407671814      2.77446329179788      0.01538891126728
