28
Coordinates from ORCA-job ./opt_b97-3c_parallel
  N   4.71648228631834     -2.05947028657201      0.41025539864501
  C   4.16997662302545     -1.05493706277835      0.19939951625920
  C   3.50654756994647      0.14925304436118     -0.05479041805948
  C   4.06670900421816      1.32604206909513     -0.62429849669803
  N   3.19343842277661      2.31102251469378     -0.75471388529474
  C   1.99690260456266      1.84585246661305     -0.27115075227175
  N   1.04097370349192      2.70450441905401     -0.07799672739388
  C   -0.20270452275546      2.67521732680869      0.33183258806526
  C   -1.23806760308538      1.72222182660302      0.26346151921079
  C   -2.49704899227612      2.32487079237663      0.54862997980080
  N   -3.47471074954422      2.87284943236457      0.85049789378484
  C   -1.24588308226179      0.33460608352612      0.00425466584265
  C   -2.42618530728518     -0.38962034444539     -0.24511600339839
  C   -3.70680729503881      0.04737519597056     -0.60590161162465
  N   -4.80033434330735      0.23458150139312     -0.95390598692046
  C   -2.15762323620109     -1.78606391654568     -0.14321540463215
  N   -3.04409245308175     -2.75902319261535     -0.32656552388632
  C   -0.78972808429714     -1.93849961119180      0.17117254622257
  C   -0.18130851716687     -3.18565778561982      0.33451001493960
  N   0.26052091014965     -4.25408626757523      0.46348879436198
  C   -0.17239165572849     -0.66119283589657      0.21131387423903
  C   1.20563807056537     -0.58444288396578      0.34266151870902
  C   2.13493031419732      0.41447643566064      0.11929323697796
  H   5.09744148053478      1.44626734766947     -0.92345922166611
  H   -0.54295087786839      3.64327850669588      0.68761395710539
  H   -3.99810548875579     -2.54729344156455     -0.56475326382552
  H   -2.77828777352787     -3.72460225058675     -0.24244533135627
  H   1.66289873509615     -1.55478313532852      0.51211046246381
