26
Coordinates from ORCA-job ./opt_b97-3c_parallel
  N   -2.16662665965447     -3.53103257295501      0.67555268049550
  C   -1.38643360891007     -2.70464843229095      0.43937184018431
  C   -0.34667023629026     -1.75174546726126      0.23675267288767
  C   0.91968648656886     -2.38016375337230      0.35325158158364
  N   2.13536521641030     -2.06165952463444      0.00571082152152
  C   2.79501623402451     -0.95179190965157     -0.20025702118356
  N   4.07162455634941     -1.00161598068135     -0.65455752164422
  C   4.51141597100836      0.25337095329904     -0.52146016083011
  N   3.65057407305722      1.16486193481333     -0.00870564115479
  C   2.50820326890600      0.47187907665046      0.15428052866162
  C   1.33499014513154      1.16617864962739      0.38928878393510
  C   -0.00584186323121      0.84215600395105      0.25640836116785
  C   -0.96466189032329      1.88205831284981      0.23921558904691
  C   -0.74353206095707      3.24753693927086      0.43787879561686
  N   -0.62852412611969      4.39424601392365      0.59613142785821
  C   -2.22959436464187      1.34814321819751     -0.10197798480460
  N   -3.35508277140187      2.03232578669043     -0.27231963377686
  C   -2.08469571879370     -0.05929549360980     -0.24700730240297
  C   -3.18359647438345     -0.82936872861620     -0.64719214294745
  N   -4.17734008051355     -1.30172758208072     -1.02355409353666
  C   -0.74683147473776     -0.42245579999120      0.01035349719760
  H   0.84270234429400     -3.40560206265990      0.70355330493798
  H   5.51748303788407      0.53300292081027     -0.79757791745166
  H   1.52097928226286      2.22224283603758      0.55112726266366
  H   -3.37686905632266      3.03083409509320     -0.16008580372449
  H   -4.20576073181549      1.56397791578799     -0.53524942900048
