23
Coordinates from ORCA-job ./opt_b97-3c_parallel
  N   0.11484323838480      3.34977295357985     -0.49664496993411
  C   0.09681871956420      2.03475636332937     -0.10038012430264
  C   -1.22069024049802      1.53198572854941      0.17988077669309
  C   -1.79631581647374      0.30053280501595      0.16747724547555
  C   -3.20843936921583      0.16809974619469      0.37592288575426
  C   -3.58414600088431     -1.12422414249053      0.10200606926021
  C   -2.43798330869231     -1.87260666813092     -0.25168334338112
  C   -1.30877843175697     -1.05982232911978     -0.20477002331460
  C   -0.03117808021057     -1.59077840557898     -0.33656256018554
  C   1.23092972884162     -1.07691436934586     -0.14100072651840
  N   2.28159494094081     -1.95003698050390     -0.07441471620371
  C   3.31182200810305     -1.18211914151954      0.28613063525510
  N   3.08050818629930      0.14062941107041      0.41531743787824
  C   1.76646634478424      0.27783513029821      0.14052960130600
  N   1.27950182367122      1.50405523176564      0.03170349202797
  H   -0.69654303588903      3.92719681463067     -0.37242578101247
  H   1.00945935392729      3.80684505621151     -0.44716893614560
  H   -1.92169992931948      2.32625526333528      0.42088121918534
  H   -3.85881421802000      0.98516628416772      0.64593439958270
  H   -4.58978490308905     -1.51291232232161      0.14992283459001
  H   -2.41972830926881     -2.92704231493219     -0.47943413319415
  H   -0.01079723024544     -2.65599437069769     -0.54046572842592
  H   4.29469551244692     -1.59787903070787      0.45678616140992
