26
Coordinates from ORCA-job ./opt_b97-3c_parallel
  N   -3.47513908590147      2.63887550974651     -0.35840951309618
  C   -2.83335453112585      1.67221554522924     -0.26233056075276
  C   -2.19374631626203      0.43932902209240     -0.13243748272437
  C   -2.89725523805818     -0.77415492828096      0.09745486059321
  N   -4.22999051783643     -0.86637362056048      0.17809701001865
  C   -1.97058356938995     -1.82398995687056      0.19269581891955
  C   -0.67475877482080     -1.33490898518890      0.04353296924067
  N   0.32714346965533     -2.18984352532548     -0.01112356975209
  C   1.63790421821366     -2.10732504672517     -0.04038733382902
  N   2.25026202128458     -3.33814776808808     -0.18710700734001
  C   2.54895653825566     -1.03680160218162      0.17218183791841
  C   2.45072852117734      0.32528330694860      0.14785938640507
  C   3.59205860840631      1.15364671200680      0.28160553888664
  C   3.17416342870591      2.44368273356091      0.03534601470239
  N   1.84221882574871      2.54483093348010     -0.21393766658672
  C   1.33260376149798      1.30360449352173     -0.14394145584966
  N   0.02386202736485      1.18452686532893     -0.25209282931683
  C   -0.80155866826126      0.18242119763209     -0.13947947304524
  H   -4.79917946099833     -0.03920452839841      0.13215865142241
  H   -4.67767049120192     -1.73010989260850      0.41932623165690
  H   -2.20330064833197     -2.86924848002291      0.31433347306225
  H   3.16976628255519     -3.36873619375897     -0.59083905601638
  H   1.63096861133424     -4.07739556700685     -0.47239792711936
  H   3.55797763395433     -1.38936701411394      0.36248791603327
  H   4.59453625698019      0.81485674055215      0.49138960397234
  H   3.78585104295308      3.33450540323009      0.03036169559691
