22
Coordinates from ORCA-job ./opt_b97-3c_parallel
  N   -4.70491299435682      1.86669132891623     -0.00132946066632
  C   -3.93184154614928      0.99886848200042     -0.00028156488878
  C   -2.98834864542894     -0.03626907358921      0.00105674723063
  C   -3.25796431046994     -1.42610784964960      0.00371417582894
  N   -2.15848800732267     -2.16350482949289      0.00428007140507
  C   -1.08772584565618     -1.31022034567836      0.00199890621624
  N   0.08879520261170     -1.86920162110347      0.00093516751205
  C   1.32312000669140     -1.41511567440645     -0.00143583457428
  N   2.31218881586930     -2.34249785268383     -0.00329335541027
  C   3.44806518464171     -1.63913771049624     -0.00489084415288
  N   3.32747520967120     -0.29591782534917     -0.00384073863669
  C   2.00196390559153     -0.07348785625451     -0.00196198697573
  C   1.57086579053409      1.26086910101488     -0.00093163031212
  C   2.62584399803673      2.22613058200323     -0.00075309343866
  N   3.40198050730086      3.08762516875751     -0.00037898615616
  C   0.29998788777190      1.84646363477993     -0.00057033404515
  C   -0.99500841926783      1.35966468759539     -0.00061749754380
  C   -1.58759000918482      0.10637924836519      0.00019926272845
  H   -4.23858577136419     -1.87804669113510      0.00509982114062
  H   4.41666307817543     -2.11561176883706     -0.00684254104611
  H   0.34134920639678      2.92714541969806     -0.00043049605987
  H   -1.72633995839130      2.16110121914490     -0.00097526235572
