21
Coordinates from ORCA-job ./opt_b97-3c_parallel
  N   3.00134093049067     -2.56821292023043     -0.31066256730493
  C   2.06570499254885     -1.89012973565093     -0.20256760547874
  C   0.85618546678577     -1.14186730424671     -0.14231937027861
  C   -0.26633851076954     -1.98104859518148     -0.34578570511535
  N   -1.53073227803184     -1.83895637855945     -0.05474944414012
  C   -2.35487220423931     -0.85003223431232      0.11242802958118
  N   -3.60723495508606     -1.08087610259567      0.58209414547204
  C   -4.21026772876053      0.10257533367359      0.48346648689584
  N   -3.49481468728203      1.13814877932354     -0.03831990241253
  C   -2.28099873610283      0.62750211189098     -0.24265974474331
  N   -1.29151433500028      1.44580330534987     -0.55583562763440
  C   -0.00527848208975      1.34726916240202     -0.42906835237825
  N   0.71029036919412      2.50685482103535     -0.60237083513214
  C   1.93833589223337      2.27795121126305     -0.18789158076629
  C   2.15876462933764      0.93196166238658      0.23148322250939
  C   3.36929855376143      0.47884595216012      0.77131924720845
  N   4.39056624021386      0.19540847275950      1.24755195084051
  C   0.95551927797983      0.24755389454319      0.02115721936616
  H   -0.01297212405938     -2.98057225066224     -0.68485031957575
  H   -5.23840714508086      0.24024230923017      0.78427043899018
  H   2.68017088385722      3.06273492422099     -0.16239795920327
