31
Coordinates from ORCA-job ./opt_b97-3c_parallel
  N   3.34726527555719      2.82470783903327      0.35843478437700
  C   2.81982305249519      1.79892543873011      0.18867610544339
  C   2.36897798149627      0.48459127263478      0.06350506719074
  C   3.24762199635711     -0.59380309219155      0.37829123697773
  N   4.55164954340739     -0.43732928383819      0.66144456508901
  C   2.53465501144328     -1.79622385831612      0.31136825433962
  C   1.20181684903144     -1.52552976955117      0.00710325110577
  N   0.39050598914243     -2.53133314822359     -0.29179934332513
  C   -0.89691916239715     -2.73326796629530     -0.29633341449689
  N   -1.26921959201750     -3.99048510485604     -0.73951067339323
  C   -1.97430166144249     -1.97040113859725      0.23627351285258
  C   -2.20407679871176     -0.62781523599532      0.33583470809890
  C   -3.47636117284209     -0.14514393763438      0.73359059169456
  C   -3.56389054960692      1.20163727671595      0.41056248148667
  N   -4.64618018253562      2.01059431528205      0.54527148484535
  C   -2.32480262159104      1.61832480127968     -0.15624160452539
  C   -1.43516089544126      0.55738489188891     -0.16326384568757
  C   -0.05225923980408      0.75051847581765     -0.41742418486392
  C   0.23400937069647      2.04527799777013     -0.94420414459042
  N   0.38998983291361      3.07752587115742     -1.45179818088062
  C   1.06425299324767     -0.03818281549028     -0.13054575084638
  H   5.07060350812344     -1.19022858559095      1.07272654325200
  H   4.91814615746909      0.49160654582823      0.78541970817506
  H   2.93877437347964     -2.79037257355533      0.40394543405501
  H   -0.52860807029872     -4.49478747962819     -1.19830612610428
  H   -2.16951437058258     -4.07471022348707     -1.17882990908244
  H   -2.80837445708447     -2.58881070038033      0.55100678533671
  H   -4.27790812097276     -0.76810074545386      1.09814075697713
  H   -4.50915759390614      3.00214295667686      0.46449415710350
  H   -5.37008770382892      1.73744115174171      1.18522410000937
  H   -2.09128888909697      2.63117719872840     -0.44056296261321
