29
Coordinates from ORCA-job ./opt_b97-3c_parallel
  N   5.37688138925780      1.42790128791047     -0.81058462574032
  C   4.61023719589026      0.59475950762835     -0.54030918021940
  C   3.65026942539537     -0.36655101906613     -0.21499352694736
  C   3.85912007652215     -1.70589685100019      0.14731488597190
  N   2.73264532859230     -2.35653716785957      0.44009273125096
  C   1.70466867634954     -1.47372107082112      0.28762275480137
  N   0.49490781257521     -1.95173116923091      0.38591492255314
  C   -0.71433323927636     -1.47401142326386      0.17703719222992
  C   -1.76091318962325     -2.39825929278915      0.14651160619147
  C   -2.96031486066672     -1.74758568649050     -0.14809505908991
  N   -4.16241331940412     -2.29524159083712     -0.33381673102344
  C   -2.70177699860330     -0.34137024093392     -0.24287936152900
  C   -3.73575113292240      0.52021599266421     -0.62152311387771
  N   -4.68768221675398      1.08500820999762     -0.98250515279005
  C   -1.33107958435761     -0.09870647261598     -0.03243943292752
  C   -0.82213041991439      1.19962284324201      0.13111416827578
  C   -1.79831467651887      2.19285524874729      0.41846677473412
  N   -2.49175608678036      3.07127937136997      0.73165430841050
  C   0.49141336401562      1.75364279680486      0.02250851892091
  N   0.58705695329873      3.11071219724172      0.08485694771287
  C   1.73077113218621      1.12609812437446     -0.21693509202159
  C   2.24877401680393     -0.13397810091078     -0.09465519892043
  H   4.81645032076150     -2.20362896790554      0.19510383809975
  H   -1.61200460976472     -3.45468313471858      0.29058045135012
  H   -4.95335861972348     -1.72390458862921     -0.57920811670956
  H   -4.29274504476005     -3.28892533437363     -0.30007267268855
  H   1.48753478910486      3.54212703581566      0.17195264914184
  H   -0.21325677170528      3.68574439248248      0.27963386227471
  H   2.49640767811744      1.85214182457437     -0.47292665813218
