26
Coordinates from ORCA-job ./opt_b97-3c_parallel
  N   -4.77751288041804     -1.25425908535758     -0.05909800984095
  C   -3.51504727743584     -0.74074698907743     -0.01014861443997
  C   -3.18869275147924      0.62806794205904     -0.01328499288164
  C   -1.79900901303164      0.78318106656881     -0.01056000370913
  C   -1.21776897037241      2.03998405472236     -0.00833367113482
  C   0.08024777701061      2.55015070462787     -0.00184653106544
  N   1.30559785189761      2.05811256599585      0.00681887983463
  C   1.78430687851258      0.82746800861662      0.00985058029275
  C   3.17061684432794      0.65400368626760      0.01672924611441
  C   3.48870182382612     -0.71537452306897      0.00950726639083
  N   4.74574293066347     -1.23501698862972      0.05670083299441
  C   2.29646791550928     -1.45682684259634      0.00699184301530
  C   1.19473083764368     -0.59337097539665      0.00397794298844
  N   -0.01135793700317     -1.12014033647368     -0.00384011476152
  C   -1.22889273708936     -0.61254758223257     -0.00952779368175
  C   -2.32455870262652     -1.48469252353996     -0.01285974260631
  H   -4.89703665179395     -2.21337801393556      0.21487785288226
  H   -5.53319025205536     -0.65332189434381      0.21913208570467
  H   -3.89895251837054      1.44181139353990     -0.01938702531919
  H   -1.95373906991413      2.83892330930205     -0.01280755288568
  H   0.09052526503912      3.63861652224284     -0.00328567681660
  H   3.86852056574924      1.47634954647458      0.02500840879021
  H   4.86545047702549     -2.19696597524566     -0.20669150205579
  H   5.51011683255481     -0.63592988093126     -0.19995262600120
  H   2.20649924003405     -2.53166418083198      0.00741730178995
  H   -2.23198315410377     -2.55876841485634     -0.01696875829787
