25
Coordinates from ORCA-job ./opt_b97-3c_parallel
  N   4.36327262064255     -0.42914486032645     -1.26215693641429
  C   3.34581249587451     -0.71517064756117     -0.77739610708728
  C   2.13500192589255     -1.15884661852589     -0.23243929277729
  C   1.89004019586413     -2.50788897812573      0.16486750514646
  N   0.66727915146550     -2.70786629584574      0.60058106184931
  C   -0.01560696364619     -1.51503869949889      0.45679233316086
  N   -1.30314984235201     -1.57483248557554      0.63449607991111
  C   -2.27893899192991     -0.75609869184906      0.28105708250264
  C   -3.58221727742636     -1.21705778757053      0.19390293948443
  C   -4.38129343200169     -0.27546647344844     -0.51320532777049
  C   -3.62311725662792      0.80930992566344     -0.87098639230788
  C   -2.30039009063700      0.63613905794200     -0.34300731711793
  N   -1.47645780295222      1.62410710173693     -0.30256649258070
  C   -0.25336020435977      1.81084817164965      0.21074240379021
  N   -0.09178457408472      3.04988169003990      0.73119246902649
  C   0.87573294709255      0.95211925739900      0.10564049571303
  C   2.10210497904426      1.65455248860916      0.21405134700211
  N   3.04399018177829      2.31646666225256      0.37737448741496
  C   0.94407047039963     -0.45254653187740     -0.00624637596853
  H   2.61077795371713     -3.31048592672304      0.10728205196330
  H   -3.89434337951086     -2.18756416931460      0.54291906881101
  H   -5.43220592622992     -0.40113816237766     -0.72441274992508
  H   -3.95457404863156      1.71260097967392     -1.35549681916005
  H   0.82476778238349      3.38809452533038      0.96937461932588
  H   -0.79867055856505      3.73068070992332      0.51720602250824
