25
Coordinates from ORCA-job ./opt_b97-3c_parallel
  N   4.92078543205173     -1.19208555394796     -0.05364414932000
  C   3.78115714498450     -0.98323849944702      0.01047203995512
  C   2.37584666071012     -0.76531764883389      0.11327726492944
  C   1.70256207904229     -1.93048888740119      0.56103606442997
  N   0.47894216275530     -2.34038604397908      0.39775273670815
  C   -0.67553583511646     -1.83547070606814      0.04104652385534
  N   -1.64900729513175     -2.74111250035186     -0.29847121927909
  C   -2.76721713985073     -2.06382450179693     -0.46733453231675
  C   -2.62323555141794     -0.67641373075345     -0.17912407570804
  C   -3.68100365345292      0.23260616352186     -0.30363968418293
  N   -4.61493923477688      0.90665871622051     -0.46085575800849
  C   -1.25641524172032     -0.47566824195339      0.10175256807546
  C   -0.65813581247062      0.78262997005511      0.32688870785134
  C   -1.55352457638823      1.81632013317762      0.74714653745980
  N   -2.22769848430662      2.65913473366040      1.17041700867548
  C   0.65015998577453      1.21936290480808      0.12193737275505
  C   0.93266600620631      2.60141337674866      0.00378624949059
  C   2.22851136769031      2.77199027470990     -0.46630833323559
  C   2.83257582847222      1.52122214461220     -0.59752092001549
  C   1.92689489485266      0.51636011218684     -0.21037666575035
  H   2.35998854997443     -2.68350808144789      0.98515410287429
  H   -3.68288117703749     -2.54064245236148     -0.78308616942216
  H   0.21865460988443      3.38877572314690      0.17500719231996
  H   2.69224980849558      3.71920234788474     -0.69097808543629
  H   3.85567699827758      1.34325249411232     -0.88478489800536
