32
Coordinates from ORCA-job ./opt_b97-3c_parallel
  N   -2.91365207132182     -2.35784864647873      0.74047025285277
  C   -1.83526328371923     -1.58546265158718      0.40663730164987
  C   -0.59505876888504     -2.14917529832787      0.67226356760559
  C   0.70851709335336     -1.84448136398162      0.24067371046415
  N   1.53256956018709     -2.95721148280141      0.16850749250301
  C   1.29704725077557     -0.60726299026733     -0.08966995148309
  C   2.64914173335741     -0.47257030612816     -0.51817336448166
  N   3.50692263288526     -1.44498087616010     -0.97565988517168
  N   3.13150923632085      0.77432927714850     -0.38199044255060
  C   2.13966087840630      1.50551295407090      0.15017436875761
  N   2.34795911807583      2.84376300229536      0.35376433824756
  C   0.93862244683949      0.75131385804542      0.33818520131308
  C   -0.29118198825039      1.36732250372234      0.55919518554183
  N   -0.29155639527780      2.61910378243376      1.15075055719546
  C   -1.55242023399650      0.95984910339468      0.02959793126378
  C   -2.46174385255881      1.87832919834762     -0.52952392392664
  N   -3.53695850181086      1.27016069493438     -1.07477974163045
  C   -3.37686545320147     -0.03897740844583     -0.82054615127684
  C   -2.16016681794295     -0.31945342459685     -0.16111751743639
  H   -2.82323242872987     -3.35596887746859      0.79679758375735
  H   -3.83487211146667     -1.99081895380089      0.59530614677281
  H   -0.66334208005152     -3.11216601290585      1.17114725032823
  H   1.13619860175942     -3.81155762902037      0.51756031207744
  H   2.50235760831254     -2.83033433418322      0.41480166694185
  H   3.08223057528846     -2.16832453398191     -1.53467333699855
  H   4.33253663848527     -1.04750951160382     -1.39608925646148
  H   1.53103184163674      3.42837309011364      0.25006339060257
  H   3.15113542542984      3.18106801329308     -0.15458373793412
  H   0.41830488554064      2.77465233585224      1.84738815059704
  H   -1.20040723467489      2.92730911379039      1.44916562472904
  H   -2.31517603967964      2.94319538534137     -0.64433683235477
  H   -4.11046394428511     -0.75516629834369     -1.16635502429517
