31
Coordinates from ORCA-job ./opt_b97-3c_parallel
  N   -3.20923787926195      1.84482133417677     -0.31389042419288
  C   -1.96733938146785      1.27169468215730     -0.18639228547450
  C   -0.90468247360009      2.12909832000739     -0.46026640407838
  C   0.45349318430778      2.10946283866154     -0.12773658222737
  N   1.04946674996654      3.34388601723783     -0.20908866967016
  C   1.30916652248472      1.02869572667650      0.19602430434889
  C   2.61414143233400      1.21800873061914      0.68270020169930
  N   3.37218013659628      0.11314506972050      0.62574700845316
  C   2.60268127659067     -0.83337873882847      0.05369286164841
  N   3.12727425085606     -2.09817341123699     -0.12838401012536
  C   1.28439274409849     -0.36497777802001     -0.22600957199233
  C   0.23610608663175     -1.23176951906163     -0.58483698519341
  N   0.59194954028986     -2.38571809465146     -1.24108412613041
  C   -1.10782610896435     -1.18069005149015     -0.12510846303001
  C   -1.79011857522899     -2.37809067893299      0.20180578117525
  C   -3.01528004353948     -2.06159980392056      0.78692044997740
  C   -3.15405407045968     -0.67598628742679      0.77746161623962
  C   -1.98936536784542     -0.09128447036139      0.22646930305747
  H   -3.26884164827406      2.79223749500935     -0.63990507206492
  H   -3.97614299567044      1.24879820061852     -0.56531601328779
  H   -1.21288473405605      3.07341137484394     -0.89887793624376
  H   0.50298136868841      4.16369632534670     -0.01790013242569
  H   2.03739887585192      3.42500339177418     -0.06548051828467
  H   3.03115930361149      2.12085657585580      1.10663248790219
  H   3.95642204131513     -2.22388487401051      0.43312351494747
  H   2.46647754982890     -2.85216672678257     -0.00774046330462
  H   -0.16146371019809     -2.89469385159764     -1.66620699055643
  H   1.43493699091473     -2.35577629631564     -1.78907483070434
  H   -1.36249083095229     -3.36785508347873      0.15573552665011
  H   -3.71167071419081     -2.76728906193071      1.21302586281899
  H   -3.99360276655678     -0.12699825325954      1.17475659366879
