27
Coordinates from ORCA-job ./opt_b97-3c_parallel
  N   5.69038394712063      0.62231619166080     -0.00061384489354
  C   4.68019437264313      0.04633177088559     -0.00074145775466
  C   3.45397936883589     -0.62835869773167     -0.00081228005926
  C   3.25100539251940     -2.02340643321279     -0.00117865001392
  N   1.96403942417744     -2.35860052234997     -0.00114280878145
  C   1.24162771368883     -1.20051685592436     -0.00075237039319
  N   -0.06173370468126     -1.33212981696845     -0.00065792249709
  C   -1.09482692065749     -0.53060650430411     -0.00032407917247
  C   -2.37829477194859     -1.12905087144173     -0.00035751429832
  C   -2.67106942213562     -2.49507379089228     -0.00070025035682
  N   -3.03848999602719     -3.59832401307113     -0.00096605884916
  C   -3.37449474408948     -0.11979814704888      0.00003823740931
  N   -4.69135985382490     -0.33995231412820      0.00008602055986
  C   -2.72605539248967      1.12947827295138      0.00032130287755
  C   -1.34460803055557      0.95778993893909      0.00012341646629
  C   -0.47135015266650      2.06206824478050      0.00033952340420
  C   -1.13317595389471      3.32956084254576      0.00078101693517
  N   -1.66802002687415      4.35911878141305      0.00122911587934
  C   0.92116746392151      2.20205566727845      0.00021999012422
  C   2.00302556330944      1.33817891260374     -0.00013000173009
  C   2.16965611990725     -0.03491672760749     -0.00052560471225
  H   4.02547170763904     -2.77569116375485     -0.00145866317151
  H   -5.05474261002601     -1.27713772101191     -0.00001777995956
  H   -5.34878690889672      0.41744724457491      0.00052646523131
  H   -3.23263796021942      2.08065485753523      0.00064159744178
  H   1.22568388582800      3.24024290812381      0.00047202132197
  H   2.94717939359672      1.87230605885547     -0.00008125760767
