32
Coordinates from ORCA-job ./opt_b97-3c_parallel
  N   2.17371806788682     -2.84387439426802      0.69055857535187
  C   1.28521264482683     -1.84600021284094      0.28628320401887
  C   0.01876784760453     -2.34230834493392     -0.02977012444245
  C   -1.25494918525862     -1.85479736248438     -0.35173947272960
  N   -2.07254561994824     -2.81987518887107     -0.91062036373944
  C   -1.85689775868713     -0.59411799813523     -0.12294407918265
  C   -3.25230380082513     -0.41756464899771     -0.07796865311329
  C   -3.57176897439542      0.90192026199746      0.24605240723015
  C   -2.37998651715904      1.60755930049623      0.38697785574451
  N   -2.26394734188686      2.96245559370132      0.65052817869140
  C   -1.27796446171285      0.72001045875789      0.14553300702316
  C   -0.00657767693856      1.24589934492493      0.00254420122241
  C   1.27082643777622      0.74176826497440     -0.14252732140196
  C   2.36654835215477      1.64818841082706     -0.35164571695088
  N   2.23654220614704      3.00686305505259     -0.58529848061895
  C   3.56407737320705      0.95412939071730     -0.20751998467248
  C   3.25750072445769     -0.37744542391374      0.08316864843739
  C   1.86441596392526     -0.56934421381230      0.10593338844831
  H   1.73414424418521     -3.66722404617653      1.06322117052176
  H   2.91867857859609     -2.52534816926187      1.28377324205220
  H   0.03758032985872     -3.42862612441695     -0.07115346036142
  H   -1.84192900636928     -3.78087632058360     -0.73078330825094
  H   -3.05710779004132     -2.63846449013952     -0.95060944609608
  H   -4.00195249118610     -1.18900680924991     -0.17300796184325
  H   -4.56603798604387      1.29432544253905      0.39741495915198
  H   -3.13072931372902      3.39580226577710      0.92270940764676
  H   -1.52824634298778      3.20890685651441      1.29233128101912
  H   -0.01615115882662      2.33305186324700      0.00828207218761
  H   3.10107875612028      3.45680542970733     -0.83707905051248
  H   1.50563044189955      3.25860826003803     -1.23064425347307
  H   4.55505070894908      1.36174403629945     -0.34001959021632
  H   4.00179990520080     -1.15459555988954      0.15739195776053
