26
Coordinates from ORCA-job ./opt_b97-3c_parallel
  N   3.60047432071115     -3.18729854445820      0.19193474622934
  C   2.63811418975735     -2.53758511820617      0.16600652324487
  C   1.46164734506731     -1.73727049208817      0.13382706703334
  C   0.30131034627946     -2.48950254658106      0.36006881256896
  N   -0.97707293711619     -2.28750234967140      0.16097857159105
  C   -1.76176800713752     -1.26027358520028     -0.02127440325408
  N   -3.05005925213513     -1.47391868381291     -0.35845107602225
  C   -3.62602466000724     -0.26937905158874     -0.24439357838451
  N   -4.91233435906394     -0.05778597342659     -0.50173235735006
  N   -2.82578802924911      0.76791292783494      0.16029084983145
  C   -1.61917296470166      0.22638033210972      0.24992425138251
  C   -0.50339768941929      1.07273013909288      0.43951784322029
  C   -0.84809127062711      2.42323462359913      0.74922101888531
  N   -1.14639959572705      3.50300106094078      1.04739110949989
  C   0.85828586697907      0.86498052474738      0.18802037501262
  N   1.63307319100376      1.96091179734346      0.11911207306437
  C   2.86733810780509      1.54904658387663     -0.23284299134862
  N   3.84365200044002      2.43831112143779     -0.41276424338017
  C   2.94999374453297      0.14122690503332     -0.36982188620344
  C   1.69441253307539     -0.35753932415610     -0.08953113816741
  H   0.51299000621693     -3.50656221578473      0.68043515735858
  H   -5.30472809078981      0.85451662542975     -0.35746280850683
  H   -5.49839324960577     -0.81916591306480     -0.79048108188960
  H   4.76780626614999      2.16311210240534     -0.68606974489639
  H   3.64854348072512      3.41338203848270     -0.26738827434276
  H   3.83180754293616     -0.43656545869470     -0.58866443917614
