23
Coordinates from ORCA-job ./opt_b97-3c_parallel
  N   -4.40308860454487     -0.73139707793577      0.51058029742621
  C   -3.11958358156958     -0.44611434602364      0.20866519477401
  C   -2.12528562490608     -1.37815194235226     -0.20453120370801
  C   -0.94511009046258     -0.66718613529897     -0.30735265821963
  C   0.29698247351289     -1.29560733336161     -0.46198195163046
  C   1.58421270580356     -0.87069923748447     -0.27312422855964
  C   2.65125812024500     -1.78792025142782     -0.14759926933742
  C   3.76890423870823     -1.12279564859204      0.34287086615989
  C   3.48086676567567      0.23944205394078      0.49074268764189
  C   2.16130671068860      0.48354779566609      0.08759908991727
  N   1.73158564549931      1.71784102027660     -0.09605807369509
  C   0.55870991858054      2.24459628100237     -0.38500252587345
  N   -0.69971021513422      1.88426594314899     -0.18239540141631
  C   -1.32883463050372      0.75291895919607     -0.01423937717344
  N   -2.64933760840545      0.79929381227517      0.31864366890977
  H   -5.02185414361576      0.04953071119654      0.64483494349693
  H   -4.81472622810216     -1.58419330558267      0.17997578709514
  H   -2.24955808810814     -2.44135726036279     -0.34377903603593
  H   0.21292251486695     -2.36492286239083     -0.63601352183380
  H   2.57167645166101     -2.84707243025797     -0.33794156148468
  H   4.71945705466204     -1.58476502893320      0.56427127688928
  H   4.16459574258243      1.01783535136871      0.78659805940942
  H   0.63971169856673      3.27057698283349     -0.73631293165188
