27
Coordinates from ORCA-job ./opt_b97-3c_parallel
  N   4.33034792242526      2.12364237417522      0.55064219877806
  C   3.55541618665256      1.26651110464121      0.40489638452335
  C   2.72178795511967      0.16632901787475      0.21325162070012
  C   3.19192147748510     -1.11613187917894     -0.18500057050276
  N   4.48127888171514     -1.42056571193598     -0.36017778183052
  C   2.09520966932321     -1.98523843832324     -0.32772766869117
  C   0.91722339359429     -1.30340937751575     -0.03951307025487
  N   -0.21690546381767     -1.95596266414537      0.09497755764640
  C   -1.48882546488211     -1.68232464076059      0.23517218975519
  N   -2.22301392727091     -2.69710137566455      0.75704439415585
  C   -2.24032039665826     -0.51326543094298     -0.18925465568724
  C   -3.59557448196265     -0.78614746559962     -0.52242166166417
  N   -4.67539591428845     -1.14503368567428     -0.75634467750528
  C   -1.86751843943367      0.81378768837705     -0.24873536288018
  N   -2.84265408332097      1.71472760032895     -0.56009957279160
  C   -2.35314519648774      2.92378191681383     -0.26395193805472
  C   -1.03917174786509      2.89126613250891      0.22182307411668
  C   -0.62988764522140      1.55915798930104      0.20290379680763
  N   0.63975798727225      1.24648275313023      0.41971959306469
  C   1.30654244996588      0.14186642877991      0.25033447714921
  H   4.76203329736727     -2.31507166219872     -0.71536728580210
  H   5.19079659919647     -0.71797048435023     -0.24468619376232
  H   2.14708439056877     -3.04214201176546     -0.53151952540431
  H   -1.76755512985031     -3.58907187533038      0.83516360412351
  H   -3.22692067458202     -2.68360363694279      0.71424531088211
  H   -2.96285090256937      3.80270370623228     -0.42022967563777
  H   -0.40222407527525      3.72085235456546      0.47709309836619
