24
Coordinates from ORCA-job ./opt_b97-3c_parallel
  N   1.55156486444729     -4.21148046974681     -0.05576204077292
  C   0.92294528858781     -3.23560320807941     -0.05912574627635
  C   0.15379441148230     -2.03618826695501     -0.06543276922632
  C   -1.22048152267176     -2.29442981782231     -0.26346053363144
  N   -2.31942162603741     -1.60809768534150     -0.08323830262600
  C   -2.62028801663049     -0.34449211469281      0.06166372526748
  N   -3.89560715148537     -0.00527267820108      0.35479364406027
  C   -3.90627352693706      1.33202939067508      0.27704284082064
  N   -2.75504389658078      1.95668727603501     -0.04775065736654
  C   -1.85741964427217      0.96254710404573     -0.14885042265392
  N   -0.58767269468317      1.27768431297425     -0.27743791105685
  C   0.52172236898168      0.59864723045618     -0.15783179914010
  C   1.74109821699337      1.31053732451206     -0.17174007506103
  C   1.91904348103676      2.68463551864816     -0.34818270784273
  N   2.19257011122593      3.80662557977038     -0.48455385923718
  C   2.80878218050688      0.41756096398663      0.10900470373401
  N   4.08972903050190      0.76751537648731      0.20282705647301
  C   2.27611165062334     -0.87972867687965      0.26699411494912
  C   0.90297491399095     -0.85529026769821      0.08155264989291
  H   -1.41683007027143     -3.32765731601633     -0.53680509375812
  H   -4.81110874439495      1.89522968937893      0.45568281330873
  H   4.80177535595742      0.09513626417838      0.42156007265133
  H   4.37214801268081      1.72343791554592      0.06788475132786
  H   2.86316581695139     -1.76430271695548      0.45261871106341
