23
Coordinates from ORCA-job ./opt_b97-3c_parallel
  N   2.81746430095091      3.53310639198836      0.00514236981625
  C   1.98971960676764      2.72076539887724     -0.01355269943561
  C   0.94055641613940      1.74980717958982     -0.04695594661926
  C   -0.31902356725983      2.39697823841018     -0.20740791006965
  N   -1.57175245195908      2.04942423213481     -0.09465612139608
  C   -2.22331913998462      0.91375576284905      0.03256967414982
  N   -3.56960723751193      0.97580228626338      0.22313126345349
  C   -3.96900880667094     -0.29532750088229      0.19850558017849
  N   -3.01199733478753     -1.23210234724630     -0.01359917316452
  C   -1.87009934860884     -0.52385740273062     -0.09223882805766
  C   -0.67521836723243     -1.23131110254190     -0.16671034457381
  C   0.64953828108842     -0.87126788719168     -0.07812921169931
  C   1.65777776809929     -1.87321501772335     -0.03885646399602
  C   1.43819233695253     -3.25415504498375     -0.14257955270648
  N   1.25901248816970     -4.39892145782032     -0.23101078535321
  C   2.91097066668295     -1.26332619945517      0.15018709972803
  C   2.73548226058031      0.10634476920989      0.21653176397095
  C   1.36683649438237      0.42392251275500      0.06584834395382
  H   -0.20377954726006      3.46039845550898     -0.39724364414310
  H   -5.00411437470032     -0.57333626983582      0.32870679000323
  H   -0.84892992129147     -2.29944488519809     -0.24083883261870
  H   3.84745707642687     -1.79080006286185      0.22825078763782
  H   3.52290778272698      0.82984555838442      0.34198411334146
