26
Coordinates from ORCA-job ./opt_b97-3c_parallel
  N   4.05321543604268      1.88391723916946      0.11009297936484
  C   3.05716352906827      1.28734475081368      0.05773326076465
  C   1.73838253704299      0.75164283587342      0.00123540516166
  C   0.72648737813431      1.74377306297326     -0.05044994732775
  N   1.15214118751635      3.04182765040876     -0.11608475248494
  C   -0.68427328898094      1.63810128794454     -0.06354333849038
  C   -1.65963537542899      0.67485660352519     -0.03877968808877
  N   -2.94839932208372      1.13795858074114     -0.03845365999726
  C   -3.74595382371596      0.06666608463547     -0.01387424330125
  N   -5.08615630918261      0.19581633529360     -0.04001342161593
  C   -3.01402948981709     -1.15173320784146     -0.00098553890891
  C   -1.67477538223972     -0.80937407754638     -0.01338388422121
  C   -0.66663494825885     -1.77378899646276     -0.01916202519859
  C   0.70253264155999     -1.72637340813453     -0.02371673644468
  N   1.37120505331252     -2.92787059208268     -0.02084313426198
  C   2.65166356756594     -2.58868544080915     -0.00376878556469
  N   2.93055569756143     -1.26431275931458      0.00601871860732
  C   1.72891703978625     -0.65927829685466     -0.01040128492091
  H   0.49565691874161      3.77995480827843      0.05134486696707
  H   2.12336465140887      3.26393885194161      0.01844347078206
  H   -1.16237140572206      2.61065358500726     -0.10365350186336
  H   -5.46861428390352      1.11475228488322      0.09686305838973
  H   -5.67256480491812     -0.58421593838876      0.18920577933956
  H   -3.41353898526660     -2.15351447947141      0.00766985837077
  H   -1.02984429673959     -2.79527806646316     -0.01492858177364
  H   3.44244756101655     -3.32466379471950      0.00116457121661
