26
Coordinates from ORCA-job ./opt_b97-3c_parallel
  N   3.96999665112695     -2.26141668617413     -0.22759919522721
  C   3.28620065652244     -1.33380537077919     -0.07283499935079
  C   2.57694534824368     -0.15408132613228      0.18112397336793
  C   3.14074175976611      0.92444919866001      0.94110274931495
  N   2.31846102413728      1.92434220692863      1.15653666741093
  C   1.14725404746412      1.59484535952784      0.50637923849191
  N   0.30579115019005      2.53718036854798      0.26066643261325
  C   -0.88544193924993      2.53853967101525     -0.35375013267853
  N   -1.04811324631242      3.51294601242039     -1.27119222939237
  N   -1.95482089343116      1.84031690349857     -0.02458424170660
  C   -2.05719600652391      0.55589178350313      0.25861426594785
  C   -3.22836864983891     -0.03814123491497      0.70634138783046
  C   -3.07001764106096     -1.41814369106451      0.48917388241149
  N   -3.94617063608336     -2.39654301974455      0.72125501793495
  N   -1.85489660153700     -1.74335641630222     -0.04435534097491
  C   -1.16212122787658     -0.60898979971681     -0.13235385964825
  C   0.20959754501225     -0.67868023655092     -0.45209697780767
  C   0.59160833166667     -1.90547007043063     -1.06399358300943
  N   0.88234739806172     -2.86403289855429     -1.64876717518881
  C   1.23647462240976      0.18647300675354     -0.03703278220177
  H   4.15079958489433      0.93125999047149      1.32639532823100
  H   -0.36487006803803      4.24877753896791     -1.31215756091344
  H   -1.98228808777264      3.71050408881588     -1.58420219858945
  H   -4.12015148586089      0.48623673217582      1.00372148372036
  H   -4.80414384542024     -2.23283660087110      1.21278543157973
  H   -3.67731884448923     -3.34297020015064      0.51591755443419
