32
Coordinates from ORCA-job ./opt_b97-3c_parallel
  N   4.04931988921189      1.71441796774603      0.75731063849971
  C   3.20216668021484      0.74333519111334      0.30178479134741
  C   3.62164270497613     -0.49312884522419     -0.17112891016634
  C   2.48682955263962     -1.24010226577403     -0.50734392601365
  N   2.57284931163657     -2.52651333668520     -0.98036477845211
  C   1.29551280466858     -0.49218374310760     -0.22108786701770
  C   0.02868317683186     -1.08348228033317     -0.06898218360141
  N   -0.01652131038397     -2.46604426119081     -0.21507878069096
  C   -1.21986340040043     -0.45092876954396      0.16894913431180
  C   -2.41905563185404     -1.14393390088657      0.49037692391110
  N   -2.56860676778567     -2.43281790225608      0.97954319043848
  N   -3.54045037016375     -0.43718042368862      0.25053139671136
  C   -3.12347765552451      0.74736878559523     -0.22931513786587
  N   -4.04992550277288      1.67672793261091     -0.59362751010500
  C   -1.69852286877694      0.85858139415085     -0.26126521384799
  C   -1.09059901239719      2.07971019316846     -0.51869870816136
  N   0.05479360020208      2.61528609049894     -0.15411205188780
  C   1.16219250242897      2.06607546000606      0.32497537866085
  C   1.76197511810229      0.82448150782488      0.21858923350834
  H   5.00062026321132      1.65278968515921      0.43850338972832
  H   3.70495741038412      2.65753431356214      0.77098212237420
  H   4.64428438419612     -0.82480086214885     -0.27227371089273
  H   1.78805911421217     -2.83458518242317     -1.53370884932294
  H   3.46475972197085     -2.76400597958847     -1.38228743124530
  H   0.71609613267042     -2.99425056844646      0.23166078728617
  H   -0.92591456221688     -2.88954709728272     -0.12890528387914
  H   -1.94601770160934     -2.66058566514752      1.73996482412244
  H   -3.53119077514308     -2.60434999275518      1.23037763933114
  H   -4.97505260221399      1.49756411619216     -0.24165930745246
  H   -3.77889102907531      2.64246071768711     -0.57105998866522
  H   -1.72394261762262      2.80095801263480     -1.03698708775380
  H   1.78517310578261      2.82524515143226      0.79779791939048
