29
Coordinates from ORCA-job ./opt_b97-3c_parallel
  N   -3.55318931711809      1.61943424374734      0.83180839371766
  C   -2.72071480180515      0.63738822546540      0.37880213857248
  C   -3.12621996334858     -0.64061105548196      0.03023421466413
  C   -1.99406029853178     -1.38709213232913     -0.33701478878325
  N   -2.07125796196717     -2.71475141922446     -0.69098086227138
  C   -0.81593342919904     -0.59940964104862     -0.19135399806602
  C   0.46700114954642     -1.13426502309952      0.00419306297110
  N   0.56883478092753     -2.51275478086633     -0.01537801913301
  C   1.69597989162812     -0.44724115300839      0.23392684994313
  C   2.84012586078228     -1.09489655321855      0.76184307459247
  C   3.96668536129826     -0.29014530529052      0.58095563499875
  C   3.56698096076227      0.85452543113732     -0.10221704473526
  C   2.16570279571232      0.82087962266326     -0.28278999318466
  C   1.51603960083843      1.93604369096333     -0.84155845531346
  N   0.33540132011987      2.45115963379204     -0.64889791485889
  C   -0.73035420965792      1.99083315861399      0.01127380755475
  C   -1.29277065416469      0.75008643050928      0.15916711085617
  H   -3.21443143176469      2.56442220659073      0.81055464006228
  H   -4.52078136399818      1.54311042844284      0.57008965796552
  H   -4.14100870357918     -1.01025020067280      0.03888615602281
  H   -1.34923137394877     -3.03465329807249     -1.31721508291299
  H   -2.98931952727792     -3.01726705531981     -0.97189096469213
  H   1.48897249972593     -2.87911875268093      0.14495642600650
  H   -0.17094273296501     -3.03961061872678      0.42151602462379
  H   2.85480092224366     -2.04871401347726      1.26988925000701
  H   4.96638932232115     -0.51948979844462      0.91576980753880
  H   4.19666577900690      1.68296814579972     -0.39133819594899
  H   2.15367187705702      2.55698114297196     -1.47070204058392
  H   -1.33360415774641      2.81987429536453      0.38000661428783
