25
Coordinates from ORCA-job ./opt_b97-3c_parallel
  N   -2.24580770595483     -3.54598799130601      0.49124177371453
  C   -1.44335499173683     -2.72378336076364      0.32526400472547
  C   -0.38513381435151     -1.78145171992797      0.19678295255364
  C   0.87112724594816     -2.39525981843197      0.45029991166772
  N   2.09140581336077     -2.07892426433667      0.13336709070863
  C   2.75205551142114     -0.99078576771183     -0.14419294261159
  N   4.01353970677734     -1.04912431696467     -0.61268437304921
  C   4.43103573963054      0.22768226752029     -0.56503687902714
  N   3.57369793335063      1.16134520006424     -0.10306368909214
  C   2.43820700009631      0.47876188787683      0.11682449828424
  N   1.32537466111848      1.13420997509615      0.34008594517564
  C   0.05880019141739      0.81603420542407      0.23951055006032
  C   -0.88470909628047      1.86609525994652      0.28697096879056
  C   -0.62728104028816      3.21861052801240      0.52880577919649
  N   -0.52977635053321      4.36080210367206      0.72059062441853
  C   -2.15591841819471      1.37586288871353     -0.08565059510166
  N   -3.26314261317740      2.08927931378095     -0.22345099803073
  C   -2.04648811179861     -0.02983701849625     -0.31684574041691
  C   -3.16232859867367     -0.74766587319081     -0.76256238364297
  N   -4.16143070572645     -1.18181286080863     -1.17005389125803
  C   -0.73294088946391     -0.44879152380650     -0.05110828982706
  H   0.78515437904251     -3.38340570118222      0.89329183949086
  H   5.43137876528555      0.49714502748883     -0.87175051402921
  H   -3.26379723492856      3.07960999803275     -0.04694171005481
  H   -4.12062654223103      1.65809537619829     -0.52684670634398
