29
Coordinates from ORCA-job ./opt_b97-3c_parallel
  N   -2.37911137121167      2.56681815599896      0.09786888518073
  C   -1.48793625616869      1.52100692561153      0.08616467495155
  C   -0.16586810295156      1.89820105444691      0.32938250287767
  C   1.11555294552087      1.35072974374735      0.16047361700615
  N   2.11304811411245      2.31536262202374      0.18972421718219
  C   1.57283917476882      0.02206921595320     -0.00827111076976
  C   2.92735710134120     -0.31604628955928     -0.28974685795489
  N   3.95384110982165      0.52288846357995     -0.68578909508338
  C   3.13014509248123     -1.69425214914539     -0.05415622588911
  C   1.93704633147312     -2.23965886600927      0.35121143847420
  C   0.92009725723426     -1.24433732843544      0.34385175469535
  C   -0.38855918895613     -1.65891415433864      0.45334189337513
  C   -1.62147783078524     -1.07860261988678      0.16789786995944
  C   -2.75723735719384     -1.89522533373410     -0.04045493482570
  N   -3.81326279562681     -1.21398612434239     -0.50582540263878
  C   -3.40935675986272      0.07446314795243     -0.56469932960534
  C   -2.07301692682711      0.25249398679971     -0.16258546635120
  H   -3.32689385094666      2.37570387882825      0.36421805026099
  H   -2.04338909461889      3.48048933536421      0.34085155180918
  H   -0.10671841433916      2.94278353530433      0.62240241900053
  H   2.99306297823942      2.04672398156033      0.60070101244391
  H   1.82061154371499      3.24115368223594      0.44730281132289
  H   4.73941784543684      0.03381875376586     -1.08346373585460
  H   3.67125427930205      1.30513345366755     -1.25604964991082
  H   4.06466429327799     -2.21484887237467     -0.20069115274371
  H   1.75210733814093     -3.28180179156811      0.56162234199568
  H   -0.47389647305543     -2.71635953033831      0.68909999442844
  H   -2.79388270636853     -2.96828580104704      0.09145906347871
  H   -4.08635966085332      0.83041977233918     -0.93708966821558
