33
Coordinates from ORCA-job ./opt_b97-3c_parallel
  N   2.14764267170416     -3.10660845445558      0.09476295006178
  C   1.33829235008525     -1.98137221397502     -0.01195045800853
  C   0.01103509462349     -2.28892072918964     -0.34425847141880
  C   -1.24503383468887     -1.67804288067028     -0.24878794630195
  N   -2.30674785197286     -2.57674419767475     -0.40759000173134
  C   -1.62985367498740     -0.34632726312448     -0.00807244359784
  C   -2.96198620539085      0.07356745063393      0.24945616536111
  N   -4.08387877636684     -0.68457759748066      0.46985490859685
  N   -3.10926769008529      1.41890550818967      0.25454981279837
  C   -1.89807631413263      1.92055243763598     -0.00530544942856
  N   -1.74058975716958      3.27669449808159     -0.09625264749746
  C   -0.89454312781630      0.90909103722400     -0.16478141444753
  C   0.42735958342592      1.25557696293155     -0.32509447181935
  C   1.64501269920390      0.60161306248700     -0.19301407598119
  C   2.84487518177694      1.37981852497018     -0.09986299587511
  N   2.95014982650232      2.73242649937014     -0.37704731709913
  C   3.86694162623956      0.58372253653891      0.43115473446047
  C   3.35646270336727     -0.69644403350661      0.60842472633724
  C   2.00636799061598     -0.75409568131218      0.19259535414541
  H   1.71678514765155     -3.98719294317523     -0.12156103045050
  H   3.08303417577105     -3.02369046630978     -0.26024462624120
  H   -0.08116701360214     -3.32363823778064     -0.66226133760435
  H   -2.03090301980661     -3.49821258587690     -0.70059808105680
  H   -3.08484546311651     -2.22926326249731     -0.94714501758502
  H   -3.92540108178590     -1.57923559358900      0.90614712961855
  H   -4.82985323315195     -0.14817936710678      0.88396483989831
  H   -0.84942155318440      3.64811313442562      0.18231306904844
  H   -2.51775016922457      3.78758473339425      0.28945963136033
  H   0.55638314647132      2.32302965707862     -0.47572988229191
  H   3.89906348141234      3.06861562710283     -0.37692455900106
  H   2.47157894113791      3.03091033491230     -1.21155655922006
  H   4.87018413890524      0.91006937549738      0.66037791343963
  H   3.91912377108852     -1.52164500284913      1.01631446413130
