24
Coordinates from ORCA-job ./opt_b97-3c_parallel
  N   4.56783767132054     -1.37842168987564     -0.07700742958237
  C   3.39065622253042     -0.73218209435297     -0.03643139419920
  C   3.17450672939217      0.65754276440026     -0.02053380531857
  C   1.79822734200434      0.84460643839749     -0.01181792798126
  C   1.21888135000759      2.10550038111462     -0.01073307037025
  C   -0.07844614179846      2.61194998846317     -0.01017571104767
  N   -1.30311780481568      2.12268500523353     -0.00293180011582
  C   -1.78118263425054      0.88960926220623      0.00905568546208
  C   -3.15351237658140      0.68530153835970      0.02555474466208
  C   -3.36238435703763     -0.70305974839432      0.04134588528385
  N   -4.53404762083183     -1.35395689963675      0.08174929148869
  N   -2.21295156373473     -1.42010661517734      0.03586554482318
  C   -1.19221812607847     -0.54732281487844      0.01552316845331
  N   0.01305210638379     -1.06147608705657     -0.00410767457676
  C   1.22734901698517     -0.56364026391003     -0.02137511073544
  N   2.24198998826534     -1.44723834438170     -0.03811674690447
  H   5.42712808430563     -0.89270075866252      0.09733404760815
  H   4.55681822345476     -2.37573615396167      0.04380093488459
  H   3.92345103826608      1.43428443419594     -0.02205140049874
  H   1.95498028439643      2.90342100289025     -0.01346053631957
  H   -0.08879235578198      3.70056992863102     -0.01668976457172
  H   -3.89113724437352      1.47076658872268      0.02849158170862
  H   -4.52290968784504     -2.35417199187018     -0.01216304181447
  H   -5.40221877428320     -0.87055137995687     -0.04804008263842
