22
Coordinates from ORCA-job ./opt_b97-3c_parallel
  N   -4.38705673751077      0.93932436473443      0.05707133527812
  C   -3.13474886708478      0.45767640431246      0.02542381287309
  C   -2.73477684424964     -0.89564143865335      0.00277276735849
  C   -1.34818001604638     -0.90170158971900      0.00317770168249
  C   -0.61833405878178     -2.08689556543097     -0.00616323805751
  C   0.72565564743929     -2.43146073845315     -0.00799724176903
  N   1.88043198865426     -1.78034757124502     -0.00938454136258
  C   2.18942744140156     -0.50403172789808     -0.00212260080049
  C   3.53845869297434     -0.11692056480461     -0.01151818287981
  C   3.56778771652789      1.26756429079468      0.00032839684071
  N   2.34390820330903      1.84195088953547      0.01763739752870
  C   1.43137592733508      0.84950935054243      0.01676009003729
  N   0.17297817758873      1.21349776788403      0.03117995228759
  C   -0.96455256898232      0.56009651541837      0.02818818066820
  N   -2.08778937194620      1.30777215651333      0.04171820018842
  H   -5.17663569989603      0.34403901677257     -0.10584504785655
  H   -4.51357332494835      1.93148631315864     -0.03727983826940
  H   -3.37561943807695     -1.76394483125411     -0.00843101318679
  H   -1.25387716973033     -2.96693015576772     -0.01356859853171
  H   0.87770199961919     -3.50815342631100     -0.01253422257565
  H   4.36799397353847     -0.80412927226539     -0.02419406479588
  H   4.44783652216584      1.89580273843598     -0.00237789255765
