27
Coordinates from ORCA-job ./opt_b97-3c_parallel
  N   -3.62926859669642      1.61411922571305     -0.12989716339870
  C   -2.74587191605794      0.58015887931005     -0.07888265722068
  C   -3.12660448483770     -0.75874943543848      0.01639187906613
  C   -1.97478974855306     -1.53684358211868      0.13797666259349
  N   -1.96612221326764     -2.89962155956602      0.19194470953818
  C   -0.81174484883114     -0.69780863063707      0.11233166887573
  C   0.44022181502851     -1.22910629345451     -0.06502974832015
  C   1.72820066047001     -0.69192219839368     -0.16542223904906
  C   2.84058588970414     -1.54332067230924     -0.35666907673661
  C   4.02532473497504     -0.80973957931832     -0.25554210741071
  C   3.67886385458726      0.50626411624721      0.03357283032008
  C   2.26649235269191      0.63159404356277      0.07234922827746
  C   1.69396332750133      1.87289364578128      0.37796521360966
  N   0.50411516940653      2.40584056896016      0.25230537092843
  C   -0.69490324708834      1.91238727233342     -0.05178679796849
  C   -1.31198130612439      0.68473106333773      0.01349200643122
  H   -3.28787853045391      2.52242379072458     -0.38758259595819
  H   -4.54996964183478      1.41024987993349     -0.47573571995553
  H   -4.14193417409798     -1.12618237449810      0.01849863776095
  H   -1.18655952805401     -3.33529631723127      0.65196198592802
  H   -2.84326406351988     -3.34588207166137      0.39357012689520
  H   0.45077879535760     -2.31066914509408     -0.17075222665920
  H   2.76653089459938     -2.60989694830727     -0.51682262100165
  H   5.02617708111468     -1.19875635607696     -0.35758521702513
  H   4.36376350788171      1.32737972772291      0.18793927176639
  H   2.42222203389018      2.59065576018032      0.75692853463407
  H   -1.36276477639104      2.72474476339802     -0.34239519282114
