25
Coordinates from ORCA-job ./opt_b97-3c_parallel
  N   -5.14092710495159     -0.29239523230899      0.56474454626455
  C   -4.05877263936719     -0.68285486077205      0.39055933762591
  C   -2.74370677682392     -1.10521851860231      0.17562373407583
  C   -2.28155444394128     -2.41647285242870     -0.02219713210790
  N   -0.96692014463751     -2.47803324629289     -0.23356802206241
  C   -0.48117647522816     -1.20710483038390     -0.17683880469506
  N   0.82116322354348     -1.06984774906868     -0.26581325135213
  C   1.62226771669754     -0.04916292827549     -0.11925494851356
  C   3.01987245119108     -0.26846724448944     -0.05691936897027
  C   3.65545430060037     -1.50160815976492     -0.24695003716100
  N   4.22492602390501     -2.50249555195658     -0.40308430384069
  C   3.67320103355396      0.93917798253775      0.28615097850889
  C   2.74603215511630      1.94896667237500      0.41879764886068
  C   1.44749624542627      1.45138284623619      0.14465350201719
  N   0.45404889300885      2.28829848706220      0.06020412757974
  C   -0.85259993203146      2.18678062034164     -0.17026657240864
  N   -1.41498444501574      3.37455271191628     -0.53112402693468
  C   -1.74874687423576      1.10988767522348      0.00650524614017
  C   -1.60826520435821     -0.25368080992372      0.05453210949777
  H   -2.88652542183191     -3.31049276616734     -0.00896159800159
  H   4.73999951828486      1.03436402171747      0.41096038849081
  H   2.94486054867702      2.98584384411616      0.63174719627486
  H   -2.41028430146213      3.48047081805160     -0.59823064253376
  H   -0.85556059984078      4.20302543302858     -0.43544294968110
  H   -2.78014159907969      1.43546090613021      0.10096784542924
