25
Coordinates from ORCA-job ./opt_b97-3c_parallel
  N   -4.69363670371552     -1.23361061554561     -0.38613612948998
  C   -3.47332839358536     -0.69329651941284     -0.15686622560028
  C   -2.34757777711169     -1.43097872634719      0.30980658557370
  C   -1.24456329283751     -0.59891248281350      0.36738106080847
  C   0.04132946333461     -1.10176492530709      0.52110888595651
  C   1.29368670209378     -0.56136286262771      0.31364147075755
  N   2.34408043295910     -1.41237923181018      0.22580923275027
  C   3.40181962053030     -0.67495640142610     -0.17729471257754
  N   4.58491277863922     -1.28168429517887     -0.42185923013797
  C   3.09875541895674      0.69291397474509     -0.31746159950847
  C   1.76129714531746      0.83829463544604      0.02751146521118
  N   1.21576871489902      2.03589406658210      0.22414470309296
  C   -0.01424287881904      2.45432105256433      0.39051051872932
  N   -1.22725690588073      1.98339835689792      0.10621031496941
  C   -1.74903294528992      0.78917178665128     -0.00841764482795
  C   -3.09752024682488      0.63187798077616     -0.37217497629586
  H   -5.47079667730546     -0.62114133426758     -0.55559509137094
  H   -4.92381665575062     -2.11157136837768      0.04284648199189
  H   -2.33445011601354     -2.49536963492028      0.49075150429544
  H   0.08616203523480     -2.17262469494745      0.68849966024847
  H   5.41662576424384     -0.72489310941098     -0.48751699829658
  H   4.69447587914301     -2.21469247367416     -0.06403378878397
  H   3.77039122822301      1.50143976158804     -0.55364100479925
  H   -0.05845607388819      3.49069936253215      0.72059243449556
  H   -3.74041365515282      1.44992522428397     -0.65226716919194
