26
Coordinates from ORCA-job ./opt_b97-3c_parallel
  N   4.44713707913726     -2.10775561126405     -0.10662835792851
  C   3.74349707280286     -1.18278063854327     -0.08861640573219
  C   3.02928731803580      0.02154250295076     -0.13321240338583
  C   3.63734137213023      1.22877527022407     -0.60177001615686
  N   2.83176437541861      2.26452817095580     -0.59371739964474
  C   1.61392244503631      1.81967678882573     -0.12802472907353
  N   0.74710671184649      2.73193999890746      0.17132552075587
  C   -0.51772313470681      2.79798150851361      0.54214013294600
  C   -1.58779440252896      1.94820069274940      0.34555088415740
  C   -1.67960791195584      0.59446523613727      0.02807966580132
  C   -2.91979189208365     -0.02277700325709     -0.19359066970145
  C   -4.16932980778076      0.58337282879342     -0.32926737049703
  N   -5.23218220584663      1.04274217619906     -0.44543255829366
  C   -2.68102693677840     -1.43197513830362     -0.18140151168326
  N   -3.58260360928527     -2.39196460371666     -0.36836392700010
  N   -1.39080424567303     -1.70817937077278      0.05093658565031
  C   -0.72872899360047     -0.53599363632822      0.14643357387485
  C   0.66646784410686     -0.61815401255719      0.33340685484559
  C   1.09216285561344     -1.93581346206382      0.67814272569621
  N   1.43575681001930     -2.97896734149679      1.05015603455642
  C   1.68211334998568      0.32846392648697      0.10732390947180
  H   4.66277590514277      1.30778525306842     -0.93291322684671
  H   -0.78211453452144      3.77083638122835      0.94683360030739
  H   -2.54816839202896      2.43539700290633      0.47393843213791
  H   -4.54666875907890     -2.17980067203096     -0.54982380509099
  H   -3.29537158050557     -3.35324666181319     -0.31401909386796
