29
Coordinates from ORCA-job ./opt_b97-3c_parallel
  N   -3.08783642436430     -3.29490226534969      0.30958039069710
  C   -2.76682457860128     -2.17797603168653      0.20432224977400
  C   -2.43095687378496     -0.83307863570168      0.08128509324464
  C   -3.37457944880680      0.20394512222235     -0.10119925730060
  N   -4.70438882228633      0.01984824392905     -0.21920678948950
  C   -2.68842835987071      1.42774372624226     -0.17206043842221
  C   -1.31653942101383      1.21454515020024     -0.04707543040711
  N   -0.51384762649953      2.26802583228886      0.01420903153312
  C   0.77736964334021      2.49120593444790      0.02466053751429
  N   1.07930525417532      3.84060086779457      0.13747255299346
  C   1.93659874032368      1.68413578278298     -0.15009731948338
  C   2.20736846303570      0.34555591312546     -0.12539627560253
  N   3.52296153568841     -0.02674599200343     -0.24983264062043
  C   3.55610956218969     -1.35235534803537     -0.11506920895868
  N   4.71617279537106     -2.03787942425914     -0.22251716998126
  C   2.26532606302913     -1.91465480071685      0.09206648437877
  C   1.36867828217425     -0.86267329123148      0.08335268913080
  C   -0.01430409874096     -1.07083206811050      0.17221228269972
  C   -1.11834376534825     -0.26854784301651      0.09087081606527
  H   -5.32254031151647      0.80727895364216     -0.16270792838665
  H   -5.09738832263073     -0.87687483720520      0.00789068853769
  H   -3.13296812250534      2.40404527169138     -0.27424958212583
  H   1.96317217508147      4.09340001809694      0.54324167176608
  H   0.29968892865589      4.40773890184908      0.42398892715419
  H   2.84086930316082      2.26042679792867     -0.30652736978942
  H   4.77026767450252     -2.97056010527512      0.14235772016993
  H   5.56375250620629     -1.49797273752239     -0.20116578566747
  H   2.01983725807782     -2.95974682442311      0.19851074354991
  H   -0.26240580584269     -2.12284523920493      0.27875280402612
