22
Coordinates from ORCA-job ./opt_b97-3c_parallel
  N   5.08569553503360     -0.99865927672348      0.41157732412423
  C   4.09856527776478     -0.40185234035830      0.27287996366188
  C   2.92789526790310      0.34779183410832      0.10833055056391
  C   2.83518178346808      1.74800306861400     -0.02564028454251
  N   1.59482123177909      2.19328959533830     -0.20280988602651
  C   0.76256883463025      1.11572256340201     -0.18183951313430
  N   -0.51240094851275      1.36300856768977     -0.19572802643352
  C   -1.58546856189168      0.59417377213747     -0.09442427845830
  N   -2.77618351676406      1.20065919366514     -0.05873311260078
  C   -3.67019814992215      0.18797558964049      0.06603181947708
  N   -4.97597215159910      0.42226740731292      0.14538474839361
  N   -3.16481679112839     -1.06893242608019      0.10419547679459
  C   -1.83930840118851     -0.89248357348816      0.00490103752944
  C   -1.02387787302498     -2.01325526349297     -0.07497383225723
  C   0.34753547118355     -2.21925893267280     -0.16086551104585
  N   1.42211523839055     -1.45668467567196     -0.06341025651159
  C   1.62144062634928     -0.16354956479844     -0.03185874989468
  H   3.66916497070835      2.43485416033156     -0.00212081201594
  H   -5.61925434892747     -0.34170309874965      0.24139244506560
  H   -5.31692131975297      1.36542119254828      0.11468849275626
  H   -1.59775447107554     -2.93197642374604     -0.07473711575229
  H   0.61017065687698     -3.26693578870603     -0.28040883689295
