31
Coordinates from ORCA-job ./opt_b97-3c_parallel
  N   -5.70620768836578      0.16129286329767      0.53911754908900
  C   -4.63110615447586      0.53837971340611      0.30835238009462
  C   -3.38372635929881      1.07854897056555     -0.02850761953728
  C   -3.23543115518081      2.32959380258451     -0.66860190813533
  N   -1.97877500791101      2.62822345789430     -0.97387565713898
  C   -1.21298021908837      1.57049446066840     -0.60078566459372
  N   0.07480804739711      1.76680017970947     -0.54856430591050
  C   1.10951021398170      1.04804125627111     -0.18431206174727
  C   2.33529045619130      1.70822889856800      0.04478076397225
  C   2.57841595205750      3.08258780652036      0.00859839950026
  N   2.88830714142469      4.20334940949124      0.00752363401535
  C   3.33322499592818      0.74445577226287      0.33227803777066
  N   4.59045897380092      0.99632048587363      0.66423446799634
  C   2.75062246400563     -0.55178133415123      0.21500270740047
  C   3.50443051229983     -1.69349443416676      0.50589966026882
  N   4.23239701248394     -2.54918565460707      0.80775351669335
  C   1.38133874860406     -0.41986667128800     -0.07773212665423
  C   0.55970867399355     -1.51644679705393     -0.39463880200633
  C   1.24800001103396     -2.66248465809551     -0.87292363996953
  N   1.71559219546790     -3.62059356566363     -1.33517219815398
  C   -0.82884220008073     -1.74829035501413     -0.18365710122142
  N   -1.26353372336094     -3.00813708818301     -0.37652490071195
  C   -1.84148652406880     -0.84126624326262      0.30950770981595
  C   -2.81378411050936     -1.49830251624166      1.10799245457778
  N   -3.52148781187906     -2.08588241794284      1.81849368958864
  C   -2.10098909616228      0.47723974324701     -0.04750711455458
  H   -4.04736685783465      2.99919313136783     -0.91117597930124
  H   5.23635888548232      0.24652131114599      0.84806511422191
  H   4.92504201719936      1.94238628862497      0.73546931768744
  H   -2.22684320213324     -3.24845725966483     -0.22434851358692
  H   -0.62078526500184     -3.76796472446830     -0.52393145057029
