21
Coordinates from ORCA-job ./opt_b97-3c_parallel
  N   3.43824577648145     -2.64691806485480     -0.43769360019330
  C   2.94450696666648     -1.61143994607953     -0.24761235054957
  C   2.35159621596012     -0.36567014105030     -0.01855094359871
  C   2.97882904568993      0.78053667604077      0.55521556664943
  N   2.16980679605596      1.81477640692213      0.67576181973099
  C   0.95185944097110      1.42646711563030      0.16510654985634
  N   0.07259114765592      2.34731000160748     -0.08695345042463
  C   -1.18848196113207      2.35678440852050     -0.48707195901518
  N   -2.19408440647579      1.55970150806439     -0.20572456682650
  C   -2.27493381832819      0.26952026237865      0.04064161730219
  C   -3.46217474680475     -0.35195055035767      0.45486121578037
  C   -3.27305107116647     -1.71894885290436      0.28269921094069
  N   -2.04578633530998     -2.03963381528285     -0.18743715791067
  C   -1.35826637237811     -0.88248767331932     -0.29431074829884
  C   0.01022227725531     -0.95759667554130     -0.45106714308361
  C   1.00706276535462     -0.01932309540428     -0.21754741944094
  H   4.01161854916440      0.83473718374053      0.86719910214331
  H   -1.47869803271791      3.27899727864207     -0.98221692205180
  H   -4.36058109783931      0.16262060950728      0.75069927254258
  H   -3.99478234685633     -2.50104861310863      0.46821549429849
  H   0.35644750745474     -1.97251932045068     -0.61330958465073
