23
Coordinates from ORCA-job ./opt_b97-3c_parallel
  N   -3.04626817774698     -3.22070555408350     -0.53130941141070
  C   -2.79355534874171     -2.10709793273864     -0.31182520349341
  C   -2.50667643117415     -0.76609827087024     -0.04177244667077
  C   -3.34785707944487      0.17414553616830      0.58988727843069
  N   -2.79231731747770      1.37354392995491      0.76923950651260
  C   -1.54254402838629      1.30954100264528      0.23708129262265
  N   -0.89637575030582      2.40891119192007     -0.02004032501062
  C   0.31555627806125      2.68335502958052     -0.46414545493002
  N   1.48829044506163      2.11700785252637     -0.26172975032050
  C   1.84295731759700      0.87025380832613     -0.05148222612503
  C   3.14669627141636      0.52425243613911      0.28186111497650
  C   3.30592309345529     -0.87070746988708      0.14601972544523
  N   4.44049840317013     -1.54987908420485      0.35707492324599
  C   2.07752829001482     -1.44965645474699     -0.25982842843046
  C   1.10843861450775     -0.46207825000777     -0.33218579527761
  N   -0.16124710873769     -0.79585918680849     -0.45277267541967
  C   -1.25619413035433     -0.12343883387525     -0.20017977210878
  H   -4.35916844282176     -0.01704923753269      0.91909556260795
  H   0.38187253114377      3.64911358536626     -0.95898525295398
  H   3.92515229993718      1.23628954485536      0.50286282401578
  H   5.26970677507190     -1.09086472500153      0.68525777385509
  H   4.48690916603561     -2.54175978352111      0.21575750557116
  H   1.87959294791859     -2.49952583320430     -0.40215738283198
