31
Coordinates from ORCA-job ./opt_b97-3c_parallel
  N   -1.66261045090346      3.13873931474120     -0.00947438429395
  C   -0.99168410631407      1.92487104784010      0.04993686429424
  C   0.36956089840338      2.06704822632230      0.35734044941255
  C   1.53952907480438      1.31374235138908      0.21831697647090
  N   2.69868616651756      2.06655436456673      0.32897144861102
  C   1.74061103854625     -0.06735921314406     -0.00970493618572
  C   3.00258344393371     -0.67160153941621     -0.25572465838386
  N   4.22005040775179     -0.07190222038296     -0.51111335493588
  N   2.96671671893523     -2.02480756331849     -0.17592916420509
  C   1.70281562600356     -2.33020331304099      0.12132004410549
  C   0.85775698036171     -1.20198915222484      0.21116205396141
  C   -0.51027225557203     -1.39846441594013      0.33985666796671
  C   -1.62686771570875     -0.61031915299690      0.16751006810749
  C   -2.92188967183510     -1.22739439033470      0.03507581400674
  N   -3.20708004078058     -2.55492771334807      0.26016494247045
  C   -3.81700317565101     -0.29102166646762     -0.48524678451027
  C   -3.14187018866622      0.91984504359394     -0.61825082568313
  C   -1.80589185443826      0.79580755829564     -0.18976412615090
  H   -1.13165067075559      3.95894104802183      0.22055224952803
  H   -2.60161714405180      3.15547394251697      0.34487385915468
  H   0.59474647643066      3.08195832807519      0.67299711523148
  H   2.57897268560916      3.00983414614155      0.65364445922637
  H   3.50128081883232      1.60335480056807      0.72717875073419
  H   4.89239254710110     -0.74959463125397     -0.83775655898733
  H   4.17775413764146      0.74634819786522     -1.09955078890842
  H   1.38746279603357     -3.35989767186207      0.22245715535520
  H   -0.73695103893916     -2.45112798084027      0.48477339222511
  H   -4.18872185305785     -2.77191723570667      0.28953719493453
  H   -2.70974686137349     -2.99150129689141      1.01787334404953
  H   -4.84698183130300     -0.47867327384739     -0.74816505427344
  H   -3.58840441565542      1.81945252737889     -1.01200817032797
