22
Coordinates from ORCA-job ./opt_b97-3c_parallel
  N   5.29593375258925     -0.32418636912856      0.02133887221928
  C   4.22156624744960      0.11914944847930      0.01457467318769
  C   2.92340557096970      0.64418799835425      0.00619625062968
  C   2.56599836115443      2.01962320115018      0.00182533943260
  N   1.25850626416614      2.20846049263890     -0.00824699513267
  C   0.66606011499995      0.97068892210118     -0.00931968688153
  N   -0.63715106380122      0.95403826129601     -0.01370180514335
  C   -1.52632478353383     -0.01638621320182     -0.00738492388406
  C   -2.89600771850850      0.30651913594544      0.00205606422274
  C   -3.45411843988572      1.59030476784003     -0.00468919333631
  N   -3.95941359922498      2.63606870091387     -0.00963589080676
  C   -3.60699800175183     -0.91827154495866      0.02399535826765
  N   -2.81543483255557     -1.98028631604317      0.02556558896546
  C   -1.51843744436150     -1.54167631093394      0.00480871122628
  N   -0.60343206297410     -2.46893048222936     -0.00720051711727
  C   0.72298432891503     -2.45375125201676     -0.02494047399389
  C   1.70972437801909     -1.47492951260107     -0.01462197536632
  C   1.72335749609615     -0.08671203092163     -0.00158855756283
  H   3.25649165926471      2.84974593777832      0.00606877245301
  H   -4.68195269694007     -1.02209936177524      0.03788874301419
  H   1.13183858748806     -3.45942916213675     -0.04455435342237
  H   2.70397351782478     -1.90964680975046     -0.01959156747000
