23
Coordinates from ORCA-job ./opt_b97-3c_parallel
  N   -4.31218527529587      0.62458064720588     -1.46085155133787
  C   -3.31139484557982      0.82292479623423     -0.90364906813724
  C   -2.12664051507991      1.16151877038148     -0.24052911141750
  C   -1.93390212901260      2.36010755582537      0.47378060066246
  N   -0.71428855573628      2.49740580654619      0.99103847505689
  C   0.00854669288467      1.41025197963779      0.62173430098427
  N   1.30641358941937      1.49613432924754      0.73643438980579
  C   2.27097207016731      0.76037590397683      0.23198537981125
  N   3.48387101362508      1.28664047717775      0.02648607293329
  C   4.15164562784898      0.31990896285189     -0.64967581159999
  N   3.53747641955947     -0.85228882862707     -0.85451020093155
  C   2.32280850192257     -0.67100072767322     -0.29538624804838
  N   1.50832963636924     -1.66257623440116     -0.11401132985592
  C   0.26081907700568     -1.81179860821858      0.25341010739379
  N   -0.02896253617342     -2.94437626092918      0.91140179069423
  C   -0.85573724943572     -0.96268741904058     -0.14334844348930
  C   -1.99924009212487     -1.71541424943440     -0.50942968965969
  N   -2.88100498717387     -2.43075990624912     -0.75633859633224
  C   -0.93245076864554      0.41502403532729     -0.06972472637064
  H   -2.67717428068283      3.13435121820516      0.59446071886399
  H   5.15898532156841      0.49066345330729     -1.00129785062163
  H   0.68690581912705     -3.64691013723952      0.98813197932316
  H   -0.97991789795931     -3.21271633411082      1.09523572057120
