25
Coordinates from ORCA-job ./opt_b97-3c_parallel
  N   -3.75938076119012     -2.42489563844190      0.67801397629158
  C   -2.76205844990463     -1.86858554991957      0.46924417469719
  C   -1.48453460140988     -1.26428206726773      0.30950899332299
  C   -0.45160448064523     -2.16463124207512      0.65832542354392
  N   0.81796445404457     -2.20047829933105      0.37474990403302
  C   1.75281583846541     -1.35972965774289      0.02313600549156
  N   2.94025926473489     -1.81514569309459     -0.41973159796654
  C   3.72527274680023     -0.72847230428654     -0.42268063440882
  N   4.98889197498645     -0.74310421246944     -0.82102878617943
  N   3.15706784705491      0.44586780430972      0.02772865113660
  C   1.89585795691070      0.12163104785367      0.24112504710023
  C   0.93894506688814      1.14398856731475      0.47918885548115
  C   1.50657527836041      2.41316579561393      0.79568797062385
  N   2.01216694492486      3.40527548821457      1.11755336257028
  C   -0.42939077395301      1.14422200923485      0.22522084173442
  N   -1.00442516654258      2.37536463135778      0.09647455534818
  C   -2.23138457166789      2.18899905036064     -0.36216813227487
  C   -2.56834708313144      0.81941245584210     -0.49891547768029
  C   -3.79199766458096      0.36513601893586     -1.00896819717292
  N   -4.81139870615792      0.07359058275554     -1.48401665549501
  C   -1.44118278589881      0.08544328695304     -0.08046138053915
  H   -0.80496986377528     -3.06244543925502      1.15692319467140
  H   5.54045485252477      0.09403230991709     -0.76388988183596
  H   5.40259216881774     -1.59527824010460     -1.15368296149174
  H   -2.87017691315592      3.02258460602611     -0.61286377040075
