26
Coordinates from ORCA-job ./opt_b97-3c_parallel
  N   4.81396988998661     -1.25135370528813     -0.06872053263193
  C   3.55924009296030     -0.72276027771905     -0.01570871807694
  C   3.22901101952908      0.63493207309849     -0.02381364809379
  C   1.82957411639979      0.77314183515087     -0.01359093046439
  C   1.23643274729852      2.01986874365190     -0.01186597781872
  C   -0.06742818193805      2.54343344389366     -0.00047356335409
  N   -1.29655231124921      2.08613618710536      0.01347851586150
  C   -1.81926890733683      0.86120574731740      0.02513978391290
  C   -3.20485979876341      0.70849469403673      0.03924442479834
  C   -3.46520284777877     -0.67048830509463      0.04628979741361
  N   -4.67480081198670     -1.28548394136221      0.10361419215206
  N   -2.33751290838151     -1.40985940437865      0.04112574736892
  C   -1.29145446685587     -0.54367619410793      0.02965000040437
  C   -0.02913460538636     -1.10249090902708      0.01511179210197
  C   1.27041702750376     -0.61129632843601     -0.00141916493010
  C   2.36055905536723     -1.47523506203743     -0.00636461752007
  H   5.58232281583814     -0.65483584741305      0.18195731522524
  H   4.92856280467952     -2.20816969318387      0.21472512872055
  H   3.92815656996399      1.45696616970387     -0.03711969892103
  H   1.96895558659505      2.82182591005616     -0.02369381550416
  H   -0.05202259867864      3.63278270739377     -0.00600666980586
  H   -3.90983400963658      1.52318240281097      0.04793597558630
  H   -4.67431113835634     -2.26611098639043     -0.12010068529822
  H   -5.48224531694820     -0.77232225436065     -0.19981735285051
  H   -0.08407001053502     -2.18610670547170      0.02178424237589
  H   2.29550981170951     -2.55278679464838     -0.00592574695185
