29
Coordinates from ORCA-job ./opt_b97-3c_parallel
  N   -2.84438725764679     -2.72484426958798     -0.99480431115792
  C   -2.00856012141630     -2.01948894646792     -0.59811078670149
  C   -0.89149831886030     -1.24909487276926     -0.18575583032098
  C   0.26081518919890     -2.03667722628112      0.06283117140028
  N   0.09140016225716     -3.38966342083530      0.04656477339516
  C   1.58793376875220     -1.66327736894400      0.38346837508562
  C   2.35511490653580     -0.54687504985065      0.22099123901672
  N   3.69891497947377     -0.68628842138246      0.41972097127804
  C   4.26121997141806      0.46641286616603      0.03682075002333
  N   5.59186024574779      0.62361212641435      0.07198211556491
  C   3.31109229780136      1.43359834367114     -0.39572542346870
  C   2.06690045650548      0.85532721370559     -0.25755391935539
  N   0.96870458851148      1.58653359182308     -0.41587296920910
  C   -0.29595617210842      1.37738410887564     -0.21873558600611
  N   -1.09803621725723      2.48578446246480     -0.21622457699348
  C   -2.33431035018818      2.07855404008965      0.01346371610901
  N   -3.36227730185989      2.91746800251952      0.14315713992728
  C   -2.44130979662181      0.64195880706473      0.11920456623074
  C   -3.65049092320601      0.02257045164650      0.44343909183415
  N   -4.70955154214899     -0.34831310286159      0.75442983272242
  C   -1.15380788156905      0.13522594179725     -0.02902420659736
  H   0.89826215350601     -3.98022602026404     -0.02400128812422
  H   -0.78326383126859     -3.78979435587526     -0.24662817071165
  H   2.19505201747265     -2.49901211766554      0.71219629157167
  H   6.15175696625795     -0.09383827995423      0.49705000061704
  H   6.01677152495696      1.50981050069333     -0.12197626328405
  H   3.48876111666337      2.45208475473060     -0.69786503232315
  H   -4.28220003963163      2.58030416723567      0.36280006819308
  H   -3.19678163087796      3.90675886194013      0.10248807238471
