23
Coordinates from ORCA-job ./opt_b97-3c_parallel
  N   5.03552132106790     -0.37286826621678      1.20126824136267
  C   3.98194479618435     -0.67900711000694      0.81803679406657
  C   2.71581419688911     -1.05037351227384      0.35483289457200
  C   2.30915727847248     -2.31768919797523     -0.11056487024949
  N   1.05864923336519     -2.36078358686247     -0.57819489906450
  C   0.53256751656864     -1.12153422783494     -0.42681234830008
  N   -0.75463199011101     -0.96770448951850     -0.56209994345516
  C   -1.55464889148209     -0.00488857591062     -0.14245608470954
  C   -2.93563742081232     -0.19313313327920     -0.02761568720008
  C   -3.67992440764191     -1.29594546186319     -0.45762953204413
  N   -4.33706700821850     -2.18858031606322     -0.80587802940437
  C   -3.43221212724567      0.90345004208149      0.74561649929362
  N   -2.51524639954005      1.79046597163700      1.07766796946837
  C   -1.34270263291188      1.37010192415214      0.49719998913470
  N   -0.36950061869544      2.20672196061181      0.39143782955883
  C   0.83621648388864      2.05366850610517     -0.18061041299243
  N   1.24120777720523      3.07869779804671     -0.94209299688173
  N   1.73957606842840      1.11591725284430      0.08296228450106
  C   1.63746155338125     -0.17947771929384      0.08506046898716
  H   2.92606016168479     -3.20442463826310     -0.11526104287928
  H   -4.45958470408288      1.02126285222700      1.05979752559940
  H   2.20156847159753      3.11635377878214     -1.23652179008964
  H   0.68957141690779      3.91858500717416     -0.96419705187371
