24
Coordinates from ORCA-job ./opt_b97-3c_parallel
  N   -4.55032892395770      0.82341053294742      0.02769095259278
  C   -3.25378308561977      0.45862077116367      0.00800779849410
  C   -2.73464590079601     -0.82324250446085     -0.26359352607890
  C   -1.35590213609871     -0.73636179684885     -0.11359223364611
  C   -0.54719195437967     -1.86077685864853     -0.10952071915547
  C   0.82425372050052     -2.08118098202820      0.06730654246024
  N   1.20151116004494     -3.35508817144406      0.41567430945868
  N   1.88275866825281     -1.29787507420657     -0.14071648012030
  C   2.09732952606609     -0.02304006166149     -0.17393691013946
  N   3.37114514520652      0.38914152024141     -0.45493513108929
  C   3.39477943446011      1.70717731221980     -0.24637614133536
  C   2.17067267346886      2.25148724733129      0.17299715096575
  C   1.24823513158324      1.21365171631627      0.18807875413146
  N   -0.03605057555923      1.45381472087120      0.38239500750751
  C   -1.10956950188183      0.72520528675078      0.22284167581699
  N   -2.30075443101584      1.36186209994516      0.30688253585410
  H   -5.24136877012481      0.24730181446078     -0.41521506103230
  H   -4.74680551604591      1.80668696907410      0.09630157310392
  H   -3.29696906918995     -1.71842858820253     -0.48073558827397
  H   -1.11018481108558     -2.78228530324682     -0.22460522104611
  H   0.52673184953271     -4.09784638613854      0.39313179597974
  H   2.15442694989970     -3.59991835608036      0.20916013014458
  H   4.31352841714283      2.25701545440529     -0.40481087089348
  H   1.93902146179680      3.28264372323955      0.38049666680087
