21
Coordinates from ORCA-job ./opt_b97-3c_parallel
  N   -3.85836401792879     -2.34416722956086      0.59062987192404
  C   -2.91267595863622     -1.70522108738586      0.38084149985681
  C   -1.69031893570583     -1.03063660261760      0.10721866145741
  C   -0.66695917192007     -1.91031072307309     -0.34909309393578
  N   0.62681276334682     -1.83737425689376     -0.36375589835938
  C   1.53201910567395     -0.89954609733775     -0.18427397796791
  N   2.78693794396817     -1.24148230394815      0.09162077353991
  C   3.46072969087570     -0.06012010518694      0.07006061551629
  N   4.75557507002910     -0.00271532398329      0.33991707860825
  N   2.75790934823622      1.05643279953209     -0.25379050249113
  C   1.50116064323615      0.62789957485309     -0.36337689677928
  N   0.53808924843168      1.51040871321259     -0.51955433800955
  C   -0.74743932055721      1.44237964524477     -0.30020234216911
  N   -1.47111033098321      2.58478594728391     -0.36970069045787
  C   -2.67842799346604      2.25301211656114      0.09444893495366
  N   -2.88135006268948      0.96908901831632      0.46138363207547
  C   -1.71988061222191      0.35914170816195      0.18524565302989
  H   -1.04843500014013     -2.87342485507606     -0.67856434141720
  H   5.25670918300376     -0.84063950622889      0.57472674892118
  H   5.23797615459155      0.87679439572942      0.29255203122288
  H   -3.46780539544419      2.98520468749716      0.18600250008150
