19
Coordinates from ORCA-job ./opt_b97-3c_parallel
  N   -4.43903737329936      1.05419752057411     -1.19640554847565
  C   -3.54497087236360      0.44114928402201     -0.77841256550166
  C   -2.47447626996624     -0.30756591138442     -0.27937789644875
  C   -2.49085733761412     -1.65938013656254      0.11707315969636
  N   -1.33372146714584     -2.10866177845983      0.61735424703875
  C   -0.44737293188392     -1.09284413372736      0.55109716421681
  N   0.82465830065993     -1.35745517705422      0.64565863614448
  C   1.87731174910780     -0.64017812476775      0.29380937724848
  N   3.03802103241004     -1.25473090578320      0.07076558140116
  C   3.80509019042729     -0.31909368350779     -0.55124891947485
  N   3.29454064014205      0.89869055367845     -0.73770098377687
  C   2.07521772642111      0.83009026160308     -0.15597794610186
  N   1.39503610434491      1.90040137378051      0.11314011120685
  C   0.17824239033456      2.08393505106631      0.57954476601309
  N   -0.92764418770839      1.43835541818326      0.27629412654677
  C   -1.20766238942576      0.18512626490687      0.10343181689490
  H   -3.34831853038169     -2.31331942359741      0.05348447746970
  H   4.80510388356252     -0.56274380419011     -0.87983344343290
  H   0.03518591367876      2.99628801642004      1.15052932273554
