33
Coordinates from ORCA-job ./opt_b97-3c_parallel
  N   3.49133124987249     -2.41410858146655     -0.63482695789389
  C   2.94413633995972     -1.17756874149286     -0.39372326524731
  C   3.64690685426324      0.02144704151341     -0.38120764791583
  C   2.75845774221273      1.04304847521861     -0.02628801147233
  N   3.12782562796847      2.36748904541600      0.04867270692682
  C   1.44641622588289      0.49902585168464      0.16987736993801
  C   0.32144028547996      1.27673835880537      0.43909426988071
  N   0.54924814420362      2.56522715188818      0.92560347825589
  C   -1.04453566085589      1.01471596362052      0.11253411917455
  C   -1.86614995017985      2.07310430133065     -0.30664771713459
  N   -3.09433929738821      1.67541372547780     -0.69462654578534
  C   -3.12678976822450      0.35242182514016     -0.47985445352407
  N   -4.31814680103747     -0.32613128350775     -0.68972919542533
  C   -1.88550630891618     -0.16305352787055      0.00827758602027
  C   -1.71660995827728     -1.48389940684298      0.48973255665698
  N   -2.87642624096182     -2.21154122602134      0.69151146312322
  C   -0.54053488688975     -2.21144249675064      0.70245635757722
  C   0.77900185155899     -2.01270486423587      0.33019722349781
  C   1.57320252065308     -0.94316447538577     -0.03997566686268
  H   4.42621532963202     -2.40455358803697     -1.00438721952271
  H   2.90099481243773     -3.06890812762486     -1.11792336204776
  H   4.68484493116751      0.15817396217286     -0.64628377845310
  H   3.98459298406558      2.58150414040448     -0.43567491612471
  H   2.39257427049017      3.02834368159747     -0.15817946453735
  H   1.34415894292922      2.64346924236501      1.53881054734763
  H   -0.26866318854997      2.98133628779430      1.33487428671225
  H   -1.56740419421897      3.10125311483300     -0.44920793232509
  H   -4.95414342322253      0.24481761238554     -1.22675777261144
  H   -4.21021374831502     -1.24819767657435     -1.08648074523796
  H   -3.70056369063753     -1.69360401445399      0.95465683840059
  H   -2.76543162555309     -3.08072806127428      1.18347498341760
  H   -0.72253558186298     -3.21407893552877      1.07761387330743
  H   1.34328633581387     -2.94024820828191      0.39122669078515
