25
Coordinates from ORCA-job ./opt_b97-3c_parallel
  N   2.35020844534591      3.11095259394217     -0.38279004516072
  C   1.54517732927429      2.28546388491585     -0.24955319359455
  C   0.47170793886526      1.35078327665275     -0.16144922731073
  C   -0.77257358378250      2.04430220138934     -0.26335543295819
  N   -2.01621946006697      1.76650882623893     -0.00687911615684
  C   -2.72587530202039      0.66812592928920      0.14556221194755
  N   -4.01454280314314      0.76518236566713      0.53931818682652
  C   -4.49820502438223     -0.47926293459409      0.38877772981942
  N   -3.65982056481856     -1.41384092700375     -0.09196446946164
  C   -2.47931011473007     -0.75584742386294     -0.21095020714844
  C   -1.33785380257110     -1.48894953535757     -0.44784122721158
  C   0.02443495322569     -1.22932324476302     -0.32336659032284
  C   0.91530390807586     -2.29843270487226     -0.35982083775182
  C   2.20605903566082     -1.84996702035918     -0.03542669281657
  N   3.31446235693740     -2.58436862183775      0.08129860647888
  C   2.14735191348876     -0.44080946277137      0.16990276044151
  C   3.30098561804351      0.24227135860149      0.57061953462553
  N   4.33978448472473      0.62193211107772      0.93197387702525
  C   0.82224431239151      0.00258082592146     -0.03587392971758
  H   -0.62829588905192      3.08955913356961     -0.52364173176803
  H   -5.52412402554780     -0.71691575296980      0.62984674637111
  H   -1.56513613275632     -2.53219099797205     -0.63645247844565
  H   0.63654864666458     -3.32228396482778     -0.55058414465065
  H   3.30234333176016     -3.57741715100319     -0.05540082596824
  H   4.18420801456216     -2.15653029005857      0.35092021782691
