19
Coordinates from ORCA-job ./opt_b97-3c_parallel
  N   3.59444469149684     -2.32919617204947     -0.32167439556425
  C   2.62622120091860     -1.69948633819945     -0.21181682280305
  C   1.37645478655879     -1.03712602792382     -0.05524421100434
  C   0.31907658430093     -1.92683179646664      0.27162674285464
  N   -0.97045548340084     -1.83439339020953      0.13919817439161
  C   -1.86026530181755     -0.88995037869602     -0.00602652925594
  N   -3.12158206423906     -1.21233337612050     -0.34095018442283
  C   -3.79535441010630     -0.05217851194483     -0.24164063799224
  N   -3.11738766990316      1.04096577317541      0.15506746285467
  C   -1.84401609246605      0.62428751460579      0.25776217862577
  N   -0.89773223294037      1.51709444161832      0.40605131722358
  C   0.40010283307846      1.44256689654497      0.23231930875338
  N   1.10810516104708      2.59274412038118      0.29112439793740
  C   2.34912543582026      2.25561802044626     -0.07463359052600
  N   2.57677563440262      0.95793039386219     -0.36777609117242
  C   1.39844590853686      0.35423335947861     -0.15531598464943
  H   0.65477485762367     -2.90855032890102      0.59305638070848
  H   -4.85369289256366     -0.00436840315606     -0.45324279108757
  H   3.13860507685280      2.98915704024895     -0.14456572626889
