23
Coordinates from ORCA-job ./opt_b97-3c_parallel
  N   4.41911739778736      0.90448753862849     -0.08994070647823
  C   3.14709987910996      0.45565936216499     -0.04047770596834
  C   2.73359228456720     -0.90472486987383     -0.02604186696475
  C   1.35375666363187     -0.90745153515890     -0.01808860250200
  C   0.63627688127617     -2.11462159671912     -0.00715944028897
  C   -0.69152013995877     -2.46014475902101      0.00297257114229
  C   -1.89259912882212     -1.73968782328987      0.01011051385880
  C   -2.21895104929595     -0.40698567535951      0.00694600183789
  N   -3.55540643611345     -0.10563810618992      0.01983824069291
  C   -3.65039622673542      1.22830764694073      0.01387124088448
  C   -2.40669228665197      1.86869289742827     -0.00418078554787
  C   -1.42994347541539      0.87112662150681     -0.00925591878754
  N   -0.14711292531504      1.21413076688321     -0.02765797903261
  C   0.97463407361922      0.55342487145393     -0.03261609445407
  N   2.11838093475375      1.30252470847409     -0.04543787672281
  H   5.17307789462855      0.29310642865733      0.16225903145606
  H   4.55995872550661      1.88720748535430      0.06803457048599
  H   3.37159473297750     -1.77612914306137     -0.02711470014543
  H   1.29651623664965     -2.97639851532857     -0.00629978787918
  H   -0.85037560276598     -3.53211677378357      0.00880933475602
  H   -2.78112099661871     -2.36042663965535      0.02159463520611
  H   -4.62293191859107      1.70096214159490      0.02240811637025
  H   -2.19772939812403      2.92530121695396     -0.01338990141901
