25
Coordinates from ORCA-job ./opt_b97-3c_parallel
  N   4.41322063353418      1.79806941977995      0.44844432998967
  C   3.74117204603330      0.88339972655243      0.19871685128046
  C   2.97486084557960     -0.24430765178231     -0.10845087729290
  C   3.43408353233415     -1.41776993631021     -0.76669311831673
  N   2.48863128077453     -2.32362204749005     -0.97998590932245
  C   1.33828951526391     -1.82045963097763     -0.44456273231697
  N   0.33682160458736     -2.61822832944197     -0.24744845719329
  C   -0.86695680807268     -2.37793602108566      0.27307813175560
  N   -1.33998188132729     -3.30985629213754      1.11032929292506
  N   -1.74460465531400     -1.43391095370424     -0.09324114376991
  C   -1.60864873418665     -0.15161846183690     -0.18078075368848
  C   -2.70863427870742      0.69929552358201     -0.51802941579799
  C   -3.95521890236128      0.24066638433536     -0.96183360548078
  N   -4.98594107561915     -0.14905080286110     -1.32995131731006
  C   -2.37600336622910      2.00897732489036     -0.17833167200604
  C   -1.05960279966979      2.06868749876084      0.31431312302050
  C   -0.39128364617720      3.24096687724081      0.69012972313030
  N   0.13290077797110      4.22737657654066      1.00871600524858
  C   -0.48190846980432      0.77409368850818      0.26211384577371
  N   0.80738254567773      0.60578819005306      0.38829051616629
  C   1.58545279889163     -0.39993024331405      0.04928117407316
  H   4.45072839825185     -1.59159271051397     -1.08813295291634
  H   -0.81039416100988     -4.15267415954866      1.25045690790478
  H   -2.31311588279521     -3.29430435643875      1.36177771999643
  H   -3.03283138352601      2.85767663719855     -0.27551391225259
