24
Coordinates from ORCA-job ./opt_b97-3c_parallel
  N   4.62860516031702      2.28630565519090      0.23162816658020
  C   4.01059458333455      1.31071712152973      0.10283265879071
  C   3.29041454362191      0.12342857568542     -0.06165374157948
  C   3.79484759097546     -1.13026345504257     -0.50160695663583
  N   2.86701906698877     -2.07379832004532     -0.55403646177781
  C   1.68209680310008     -1.50295636118655     -0.16610195110939
  N   0.66190325331015     -2.29176825474289      0.01194788065743
  C   -0.60268313890885     -2.14717762126160      0.31794820973454
  C   -1.53205581785052     -1.08485199152447      0.18243103974853
  C   -2.86050187704152     -1.57194736443601      0.35458324669348
  N   -3.89503711617551     -2.05325065268175      0.56584447116262
  C   -1.36521025747661      0.28868808373813     -0.03415662150922
  C   -2.42847752673480      1.18890646657763     -0.24985200039464
  C   -3.73768362720421      0.91281374803188     -0.67352379583226
  N   -4.82235723072130      0.78669145475984     -1.07030435757845
  C   -1.97895756382044      2.52464539811113     -0.04104064169454
  C   -0.64936384068238      2.50564999820110      0.28768726397813
  C   -0.16498361478996      1.16821106109905      0.24280565019085
  N   1.12424750674824      0.99289049117709      0.33022788960643
  C   1.90451565052063     -0.04924862464806      0.11460109069394
  H   4.82192768317374     -1.33934555833667     -0.76109695041763
  H   -1.06514389631699     -3.07741507067795      0.63198840951864
  H   -2.60673963710947      3.39282938789923     -0.15665409329500
  H   -0.00511977125842      3.34815672578189      0.47306607006774
