23
Coordinates from ORCA-job ./opt_b97-3c_parallel
  N   -4.41887634368083     -0.50582036630572     -0.33632695205396
  C   -3.40240662860675      0.02992841668862     -0.16091648240908
  C   -2.25450135807224      0.78571143334440      0.10461353452935
  C   -2.31152113989370      2.04998134816361      0.78050579509493
  N   -1.13780737510974      2.59593556872913      1.00531167545866
  C   -0.21116767580260      1.74240308485595      0.45579517995689
  N   0.97467101926286      2.19448590168387      0.23170797876531
  C   2.05690469798912      1.61200755115243     -0.29378648215253
  N   2.66930260736318      2.27634047133849     -1.27949909604478
  N   2.68887001622426      0.55841713473998      0.21090385071164
  C   2.19693343987671     -0.61695571808739      0.48152253327311
  N   2.98171757783357     -1.59117840898599      0.99785749003675
  C   2.28508934658070     -2.70833549008368      0.78720587374959
  N   1.07612644266742     -2.59453279402946      0.17872435818327
  C   0.90951113803045     -1.27593533521991      0.02749175668299
  C   -0.34437482042360     -0.76773642759245     -0.35636126088055
  C   -1.20447447673072     -1.73287252167055     -0.95188925200616
  N   -1.87373151093334     -2.48777925081224     -1.52364239666004
  C   -0.89529930656244      0.48551889837938     -0.04076421746148
  H   -3.22685150831873      2.52879890543616      1.09801757532782
  H   3.59205733712113      1.98911927419432     -1.55657104216495
  H   2.35042073415948      3.19729906256132     -1.52569271392782
  H   2.65893783322552     -3.67564084168059      1.08918795018991
