31
Coordinates from ORCA-job ./opt_b97-3c_parallel
  N   -4.12753064681772      1.63503372122447      0.19746745018302
  C   -3.22635860504064      0.61548301083050      0.09775555155771
  C   -3.58675584025489     -0.71714443034045     -0.10793144090312
  C   -2.41142838802240     -1.45428174998444     -0.26898865768430
  N   -2.36858515808923     -2.81420697814413     -0.44260384163286
  C   -1.26883136649759     -0.59893251693378     -0.14481499655631
  C   -0.00004871949225     -1.13276936738283     -0.00010638231228
  C   1.26878911866950     -0.59911575929618      0.14479334078821
  C   2.41129838961037     -1.45462899396481      0.26865186288821
  N   2.36831528287509     -2.81461134410070      0.44177934436870
  C   3.58670204344401     -0.71755677160278      0.10784635286979
  C   3.22644237017225      0.61518264978002     -0.09735594883156
  N   4.12771918402996      1.63467522098489     -0.19671021207571
  C   1.79068059638406      0.74580480120680     -0.05423941468378
  C   1.19327186847389      1.98361822955601     -0.22519848253869
  N   0.00013991377810      2.50901425765574      0.00055999185334
  C   -1.19304692020085      1.98365887046638      0.22611993657204
  C   -1.79058369235132      0.74596989451772      0.05470223475512
  H   -5.04321681112646      1.39087050147415      0.53167424062263
  H   -3.79631044080657      2.51979342085443      0.53901993414146
  H   -4.59418109902202     -1.09803696667060     -0.18306746881235
  H   -1.59853345873721     -3.16428149494283     -0.98636806286993
  H   -3.24066938920154     -3.24131299919474     -0.70340114180979
  H   -0.00010466971819     -2.21898388690539     -0.00030258794739
  H   3.24035717787669     -3.24190352399292      0.70241397252291
  H   1.59823043437523     -3.16480270887199      0.98542182892777
  H   4.59408850928539     -1.09858241657351      0.18283377049928
  H   5.04337809047110      1.39053705409924     -0.53101109644922
  H   3.79658783003609      2.51959169926663     -0.53794387498654
  H   1.88492090486457      2.76128694107495     -0.55594310985931
  H   -1.88461713336729      2.76127765031021      0.55714694600289
