30
Coordinates from ORCA-job ./opt_b97-3c_parallel
  N   2.34215544797514      2.67706290664637      0.60786666772172
  C   1.41641849776335      1.70899758712562      0.34810293774728
  C   0.09949088329208      2.06000754661012      0.61787238752268
  C   -1.13910545826503      1.51790258471520      0.23605325310546
  N   -2.15001365640780      2.44420012092691      0.17722863734498
  C   -1.50057539033046      0.17775250041165     -0.05607889556567
  C   -2.80901073257505     -0.21722512861045     -0.46265405069795
  N   -3.85373257986175      0.58369600989483     -0.90322454979311
  N   -3.03100320981731     -1.53394775755626     -0.31017381295767
  C   -1.90469189728163     -2.03532753573317      0.22247837384934
  C   -0.89670806982154     -1.07170664829118      0.38619096750945
  C   0.43549549266889     -1.46026674676077      0.65528074732736
  N   0.63429768890468     -2.59118209715606      1.36140608099641
  C   1.59866195879623     -0.86678526573291      0.09377281329608
  C   2.65880010051408     -1.63016495723108     -0.43441262267588
  N   3.59711550436723     -0.86382604015414     -1.02213414975428
  C   3.20195721290508      0.40731060046267     -0.82608368376713
  C   1.95870417151298      0.49431516475896     -0.16758376496349
  H   2.07551378371724      3.64032162105084      0.69155111321427
  H   3.31754242898976      2.46833731207726      0.51784709435332
  H   0.00800917928877      3.04588673314444      1.06578235557110
  H   -1.94624187001247      3.37155015421463      0.50185018531688
  H   -3.10014759819967      2.13089161269611      0.31056800134574
  H   -4.61615078452445      0.00805571847423     -1.23005990190071
  H   -3.58835645408938      1.26829533400153     -1.59658531139779
  H   -1.80498681690156     -3.10540656679850      0.33674753964302
  H   1.56307477468968     -2.94996700434958      1.47886161816760
  H   -0.13308398933653     -3.14161807136939      1.69776251943207
  H   2.70178612938609     -2.70807201039012     -0.51225701127404
  H   3.79129109485342      1.22689478372241     -1.21422954501725
