23
Coordinates from ORCA-job ./opt_b97-3c_parallel
  N   -4.52524725244273      0.85566012718358      0.07659116002334
  C   -3.22400121483468      0.48249549704148      0.03083458166891
  C   -2.75662688079733     -0.85134427370641      0.02543675197363
  C   -1.36542265346481     -0.87305052219989      0.01878659242294
  C   -0.68195941540362     -2.08024262180658      0.01120071961203
  C   0.65329849558715     -2.45912073819041      0.00191441619988
  C   1.85663145118644     -1.77515461022971     -0.00665351927465
  C   2.21496757380079     -0.43390082261262     -0.00829342841677
  N   3.53827783283169     -0.13952208255954     -0.02053424865680
  C   3.57805709273227      1.20606359957761     -0.01975661044223
  N   2.40859566249470      1.85043367423971     -0.00728552461093
  C   1.47384857817764      0.85958673921931      0.00060156622703
  N   0.20952850493297      1.22890283480368      0.01509067032818
  C   -0.93348347322052      0.58470202505655      0.02305489718073
  C   -2.11560988480851      1.33787335277337      0.03399018720717
  H   -5.23431339009961      0.18120567510706     -0.14691065370974
  H   -4.76271249298426      1.81013522233721     -0.12381011715166
  H   -3.38461382603929     -1.73034532307859      0.02884579077558
  H   -1.35635036587053     -2.93137386724976      0.01382305389385
  H   0.78200887936465     -3.53518495831559     -0.00022393045682
  H   2.73310221635539     -2.41258296081202     -0.01433195564367
  H   4.51876859019229      1.73824090166697     -0.02868577675777
  H   -2.12608563459003      2.41546916955456      0.04152415760780
