26
Coordinates from ORCA-job ./opt_b97-3c_parallel
  N   4.81344269401402      1.57395821393387      0.29994983957218
  C   4.12179788909631      0.65458268773367      0.13334762840925
  C   3.29471162282199     -0.45504295360469     -0.06986276990717
  C   3.69866000736658     -1.73474907050885     -0.56244526403893
  N   2.70016869420943     -2.59038787763740     -0.63965205436604
  C   1.57055985227733     -1.93070505612771     -0.20435133224441
  N   0.50459368414125     -2.64417634025799      0.00586702093386
  C   -0.73372291239231     -2.43520134569524      0.37663571633099
  C   -1.62356535778019     -1.34391475544050      0.24968164339361
  C   -2.95907249380518     -1.77139609321945      0.50416610355058
  N   -3.99569521733895     -2.20279358952337      0.79771871459891
  C   -1.42403162132414      0.01977852464077     -0.03604959203594
  C   -2.48562640137459      0.91811825407688     -0.31943214042543
  C   -3.80059706788479      0.62173678477243     -0.71740790087845
  N   -4.88529837068599      0.46896195243387     -1.10220175506979
  C   -2.02028078801884      2.24189852950264     -0.22679484137412
  C   -0.67406498920275      2.21829351019213      0.10734763477420
  C   0.13860513785873      3.34981216541824      0.27821718944318
  N   0.81570370535974      4.28133013814825      0.42909388125943
  C   -0.22729021335280      0.85713671883795      0.17986864754464
  C   1.12129937807782      0.60655137815458      0.30832855053506
  C   1.90518926571753     -0.52464791028351      0.11243248541764
  H   4.70526792515569     -2.01018934807031     -0.83917269850283
  H   -1.21712043704560     -3.33765036748651      0.73718352081902
  H   -2.61462718197979      3.12216821504518     -0.40317880310627
  H   1.70745295170270      1.50766267406223      0.46188387906736
