20
Coordinates from ORCA-job ./opt_b97-3c_parallel
  N   3.59192019693121     -2.34307371001028     -0.01787839353236
  C   2.61551502364155     -1.71689335888521     -0.02567535094498
  C   1.35668149830913     -1.04789377389853     -0.01117950190049
  C   0.27693405626804     -1.92958982256473      0.14953221112050
  N   -1.02341141255296     -1.82156807072066     -0.02875748371317
  C   -1.88966136424288     -0.85617202308938     -0.07696119871676
  N   -3.18402338916548     -1.18921781198110     -0.33647654686120
  C   -3.90990685026886     -0.07445937646995     -0.19879050726300
  C   -3.15686018274465      1.05614469496549      0.15562695468838
  C   -1.82652583668701      0.65586794411121      0.20353111080505
  N   -0.86482112199630      1.55071330757063      0.30126287228827
  C   0.42938133792145      1.45960223323588      0.14059175819667
  N   1.14619702848961      2.62236109775478      0.14866878940610
  C   2.39040696076426      2.25449473959144     -0.12169503201928
  N   2.61617812825192      0.92262874656671     -0.29077698688990
  C   1.41997228746820      0.35482271679427     -0.12590637717180
  H   0.58174697689924     -2.94855742862662      0.36673409165250
  H   -4.97936561433443     -0.10871873083347     -0.35235285954048
  H   -3.50389700451138      2.06315149953101      0.31617988251513
  H   3.19590419866193      2.96807095355859     -0.21029840752003
