25
Coordinates from ORCA-job ./opt_b97-3c_parallel
  N   -4.78354934943465     -0.49008150797992     -1.44371861407028
  C   -3.86037617376407      0.04332831798995     -0.97840528745771
  C   -2.75473255459101      0.69013361738609     -0.42016703974740
  C   -2.68979935699915      2.01541179511750      0.06552193266736
  N   -1.53049167905676      2.33899811581463      0.63302293762334
  C   -0.72030387906117      1.24582216901430      0.52608509737090
  N   0.55208466901562      1.39364356280010      0.75720997681248
  C   1.59162483820186      0.63320681993240      0.43750086788195
  C   2.85081709950360      1.18651507461050      0.40062897280762
  C   3.75993032838022      0.27237676508633     -0.21884181483089
  N   5.05939491652009      0.53501150027459     -0.42020633476422
  C   3.08766125242024     -0.90442440078637     -0.55292705779428
  C   1.75793053578174     -0.80507159981232     -0.12021871585662
  N   0.97748642251955     -1.84581179631696     -0.07527111538313
  C   -0.30810023697829     -1.95804730336074      0.28174168676833
  N   -0.61535993396738     -3.11788481265768      0.91285293690455
  N   -1.34932701454833     -1.20353663003553     -0.03949082767533
  C   -1.53132309488872      0.08741648079964     -0.05413383780418
  H   -3.49417361934281      2.73536030917327      0.00952146173738
  H   3.07246330396374      2.19893141237739      0.69742174462990
  H   5.64390614186077     -0.09790831540740     -0.93373731685867
  H   5.45603343331035      1.41740747079018     -0.15689805462352
  H   3.52568544742696     -1.80313913055966     -0.95483414595435
  H   0.07479450240578     -3.84794085968106      0.90353663501109
  H   -1.58425477857906     -3.38444871767054      0.93816092240678
