25
Coordinates from ORCA-job ./opt_b97-3c_parallel
  N   -3.21397741552216     -3.11285906102033      0.03827770760489
  C   -2.35991832287789     -2.32735102626140      0.02451774980209
  C   -1.24928273216897     -1.43277319003079      0.02841553238153
  C   -0.02282579861992     -2.10213288139183      0.16355124710789
  N   1.24899346991105     -1.79856498368700      0.03397234302867
  C   1.97957799806498     -0.71482372377880     -0.02179977429974
  N   3.30022222819600     -0.87083806011454     -0.24661924776326
  C   3.86685322233720      0.34432269471526     -0.11234074036984
  N   5.18307744445100      0.49210628449832     -0.30192961174721
  C   2.93445837596110      1.35910659042437      0.21519638744634
  C   1.69115742652832      0.75444830616287      0.23447410611787
  C   0.51363031397004      1.48696701231557      0.31147049017932
  C   -0.82405614862290      1.18656410327622      0.14255846986795
  N   -1.70963374424390      2.21397681455381      0.11268263245463
  C   -2.89087920600119      1.62286592211553     -0.12537485122364
  N   -4.02897667374629      2.30848022780555     -0.26493075647605
  N   -2.87607458348655      0.26465847722127     -0.23892907490206
  C   -1.59557970930506     -0.06654477878331     -0.07091742634449
  H   -0.16247766113121     -3.16435462392825      0.34907691816466
  H   5.73807801353569     -0.32720701858920     -0.47483678259101
  H   5.65047947781672      1.35388854828220     -0.09435787482748
  H   3.13800572460417      2.40897215717962      0.35681988103252
  H   0.66356631700963      2.55313392742255      0.44028050965655
  H   -4.89464404388765      1.80868299387253     -0.34641516855787
  H   -4.04103701637209      3.29322484224010     -0.07718672634265
