27
Coordinates from ORCA-job ./opt_b97-3c_parallel
  N   0.00017143947065      3.84303759514898     -0.10493657835026
  C   0.00011434791293      2.44320046706334     -0.04188634155282
  C   1.27426967022282      1.86998638024347     -0.05212717738795
  C   1.80138438099952      0.59214584265659     -0.03285490063013
  C   3.18150910269841      0.38180535071712     -0.05221246046851
  C   3.37992178106591     -1.00322522822073      0.00436501230493
  N   4.55537015281581     -1.66887682604910      0.04530102227825
  N   2.22420828665489     -1.70214032253534      0.06257061711699
  C   1.21424490310270     -0.80977564217915      0.03973600190740
  N   -0.00006700482695     -1.30097743027816      0.07159651483885
  C   -1.21434782305228     -0.80961692589948      0.04107937215189
  N   -2.22439817345443     -1.70184970733375      0.06506138402732
  C   -3.38008220888743     -1.00278613368989      0.00807371489945
  N   -4.55556926810561     -1.66828144917192      0.05034156588306
  C   -3.18155159446037      0.38221420004535     -0.04881054006454
  C   -1.80138227314133      0.59237617813520     -0.03094961092159
  C   -1.27412430908195      1.87014706223258     -0.05081335212281
  H   -0.83020032633670      4.28721861998835      0.24875549502983
  H   0.83095533412570      4.28711525202996      0.24791770102020
  H   2.05950318239744      2.62073536106585     -0.09017876900066
  H   3.93978032339271      1.14890695155713     -0.09204466005104
  H   4.50903113542928     -2.66223262238642     -0.10214356623575
  H   5.39356222921965     -1.20744630314979     -0.25603668477175
  H   -4.50951656231374     -2.66165042902661     -0.09708717504955
  H   -5.39402372818561     -1.20676446557970     -0.25012473441384
  H   -3.93976271349405      1.14940886629919     -0.08785864964953
  H   -2.05930149146794      2.62099346361692     -0.08806123938747
