29
Coordinates from ORCA-job ./opt_b97-3c_parallel
  N   -2.88668664189660      2.72075778616497      0.87106279872471
  C   -2.03967053840515      2.01534233921172      0.49953355910469
  C   -0.90920281760651      1.24399693180889      0.12367992191139
  C   0.24269348217690      2.04502673427323     -0.12209552038451
  N   0.03821876916837      3.39732753768621     -0.16376109498806
  C   1.58157306389734      1.69686764515983     -0.38835026927657
  C   2.38608439754814      0.59863693580765     -0.21134869103318
  N   3.72464993406638      0.75253314605901     -0.39569124165164
  C   4.23947711552138     -0.43412006735460     -0.04868709333363
  N   5.55349673930129     -0.68056019017646     -0.05168322267298
  N   3.35284614462611     -1.39966727061450      0.33469984623138
  C   2.15890163781932     -0.80369779225380      0.22949058404829
  C   1.01513707542418     -1.57602854424928      0.40023516569449
  C   -0.33209787810767     -1.36075439418530      0.21112286304469
  N   -1.11909390932123     -2.47266748150466      0.24304149491327
  C   -2.36736972505519     -2.07673293160514      0.00846778787226
  N   -3.38676210594676     -2.93190584781304     -0.08604709126177
  C   -2.46913512977597     -0.65323448432805     -0.13758732341507
  C   -3.67389718537734     -0.04155635320136     -0.49176360936052
  N   -4.73051939159595      0.31860010623676     -0.82207011986332
  C   -1.17172468450373     -0.14289163189746      0.00210377708767
  H   -0.85288433836668      3.78167031140613      0.09828027205995
  H   0.82711298546107      4.00546572019732     -0.05025248993565
  H   2.17735731741213      2.54438968753954     -0.70732812321839
  H   6.18192248330868     -0.00479755406562     -0.44381871214804
  H   5.87676165254432     -1.61392744057451      0.12019753947073
  H   1.24025623259167     -2.61099842887672      0.62185128292904
  H   -4.30831395342648     -2.61190442684748     -0.32366318555224
  H   -3.20681619378047     -3.91825532770704     -0.03985100429841
