29
Coordinates from ORCA-job ./opt_b97-3c_parallel
  N   0.56274633121334      5.10771799943209     -0.66070486841679
  C   0.39815850510309      3.98813583871263     -0.39586108088784
  C   0.18280013293804      2.62325221456667     -0.07238465019997
  C   -1.04798520570062      2.37083637332519      0.62139060274579
  N   -1.79618313404242      1.33176436603524      0.70910635062235
  C   -1.77436671892519      0.07907467672385      0.25862918304101
  C   -2.93253798729275     -0.61559625665985     -0.04766109740297
  C   -4.25193131172374     -0.16531540314784     -0.04778565047822
  N   -5.37882385058086      0.12422007533027     -0.06850786837623
  C   -2.52821775089463     -1.99786406999926     -0.23604175703772
  N   -3.37190609347123     -2.98895672440970     -0.50751932852111
  N   -1.22306928208342     -2.17772726730645     -0.09041682486169
  C   -0.68126465484991     -0.94743876836747      0.14029319783035
  C   0.68560742607969     -0.76725455339811      0.13552380061139
  C   1.54960124284676     -1.89425551040177      0.10840552248853
  C   2.85851283244138     -1.46830722756118      0.04709597658756
  C   4.02555898934327     -2.24477164472194      0.06488121720640
  N   5.03499282249787     -2.82136984878934      0.07532131874883
  C   2.86591676912350     -0.03010549486191     -0.01543547244053
  N   3.99799070176548      0.68908970387772     -0.12583788087994
  C   1.53130894006334      0.43678149575635      0.02480600745728
  C   1.26719725627963      1.77850826589430     -0.24117360973234
  H   -1.43229834155734      3.23796325750352      1.15606002473383
  H   -3.02633147976157     -3.92966573736302     -0.57865828270677
  H   -4.35520238174444     -2.81881449987251     -0.62034180758431
  H   1.21197417526507     -2.91371572757779      0.15912967835979
  H   4.88221613852571      0.21290896600763     -0.08339717021615
  H   4.01482258359107      1.66102838308950      0.12061356368467
  H   2.13390245905052      2.31496082508331     -0.61426667447556
