36
Coordinates from ORCA-job ./opt_b97-3c_parallel
  N   2.73862358478975      2.35246934487491      2.18008675660838
  C   2.03523062881547      1.96435790344565      1.33714738239485
  C   1.12660635770097      1.57834778148639      0.32771466584579
  C   0.35708571598666      2.57927917273985     -0.22886198056521
  N   0.59956867810177      3.87989285754313      0.07492843655754
  C   -0.66063185559347      2.39033448839725     -1.24947716153339
  C   -1.75307957879782      1.60827429058747     -1.14130594939952
  N   -2.82826201192434      1.77652721073137     -2.02638216689228
  C   -1.99674741613614      0.61155953702791     -0.11288283760231
  C   -3.26204041652865      0.37070266535742      0.49609497912600
  N   -4.34214601731885      1.15483237845827      0.43108170761614
  N   -3.31330736779806     -0.78985089854254      1.20601842860604
  C   -2.13143029698498     -1.36444463821777      1.01964410872927
  N   -1.80245526303341     -2.48210175977900      1.65840141009190
  C   -1.22021206506326     -0.52139920388866      0.18829882100575
  C   0.11184023956802     -0.78433623179752     -0.11050979972063
  C   0.72065963114513     -2.07945133688533     -0.31159315845171
  C   0.09129608759067     -3.29221683586359     -0.57061213613723
  N   -0.41616108896760     -4.33034320955811     -0.74210478727556
  C   2.10499144699236     -1.89568397275702     -0.43644233945953
  N   3.03556831938652     -2.83411479643669     -0.67488262947068
  C   2.38207015729757     -0.49641631711383     -0.27635997816274
  C   3.67816266521789      0.02310805071125     -0.34378829499640
  N   4.78397198267289      0.37014026491716     -0.45014217869544
  C   1.17668330054949      0.19264593090387     -0.10572819303933
  H   -0.12376392110099      4.55395214582283     -0.09530735091451
  H   1.26262538052489      4.10418497977191      0.79959110503493
  H   -0.59584194749574      3.07511814345535     -2.08962192213555
  H   -2.62998914623881      2.38820643067774     -2.80376139952055
  H   -3.22321887549650      0.90401989576332     -2.34675877585225
  H   -4.36152302319500      1.89321001274445     -0.25274142107770
  H   -5.21062082874719      0.79409750876766      0.78577342307452
  H   -2.52192507460352     -2.94019672302617      2.19130880045889
  H   -1.01384371490441     -3.03532779252753      1.37334183227023
  H   2.75466542146058     -3.76710446115218     -0.91845523078661
  H   3.96962835062788     -2.55556110223927     -0.91850289513088
