36
Coordinates from ORCA-job ./opt_b97-3c_parallel
  N   -5.46177471872071      1.13742923008974     -1.73000401908331
  C   -4.41941906519537      0.89710312336801     -1.27328792548349
  C   -3.20781868446943      0.51498720385309     -0.68478297371662
  C   -2.05226787088065      1.23439355056519     -0.54782038016380
  C   -1.04427139945352      0.37943554216420      0.03075631438532
  C   0.26588388892637      0.80052426834016      0.19430784841845
  C   0.67672058468005      2.16466690491907      0.34164434728718
  C   -0.10309688015461      3.28661529172129      0.62381413256024
  N   -0.69058995412728      4.26623967766770      0.85359273091886
  C   2.07443129603128      2.21044277797038      0.29560744603501
  N   2.85568663374866      3.27710964159889      0.45836841982394
  C   2.56499632159080      0.87018965190062      0.07844451378305
  C   3.93262013482953      0.59312189989464     -0.00326628525800
  N   5.08948612658141      0.46862145117400     -0.01863119639620
  C   1.48769155588387     -0.00929352304380      0.03801286070174
  C   1.62286727868347     -1.37168022894467     -0.40065177926613
  C   2.59007241097811     -1.61473265026096     -1.40117145540528
  N   3.34381030280559     -1.89694103454978     -2.24241887522124
  C   1.04221006044639     -2.50985657347573      0.16533310265929
  N   1.55116923407050     -3.72176255984563     -0.15292492992784
  C   0.03100533662614     -2.54943459639497      1.18612449458920
  C   -1.17174114244571     -1.92275215596250      1.21156753830741
  N   -2.12428559672516     -2.35636953048623      2.13420790803956
  C   -1.65877694521342     -0.89135291074445      0.31836315122537
  C   -2.98936108227625     -0.80408574677370     -0.09877741731917
  N   -3.95816851852267     -1.73635400384722     -0.04325730970105
  H   -1.88870884125917      2.23239681571650     -0.91270392296896
  H   3.85641826557864      3.19172709522356      0.42734586969206
  H   2.45791515499457      4.18742506526002      0.60964726006844
  H   1.02532097632436     -4.54885191531633      0.05795514170572
  H   2.29287569687943     -3.80543558620349     -0.82870261263890
  H   0.20209430218448     -3.31195201641017      1.93930543946930
  H   -1.78105207217526     -2.99131345733472      2.83756875453517
  H   -2.67553461169107     -1.61393040166984      2.53675885327241
  H   -3.80867023626804     -2.55573667065385      0.52049874540857
  H   -4.90715078066530     -1.47604499330834     -0.24878924173686
