27
Coordinates from ORCA-job ./opt_b97-3c_parallel
  N   -4.71768018313069      0.99019948074091      0.51915226761049
  C   -3.66744800574710      0.50749551057981      0.37390215389488
  C   -2.45405468767965     -0.15325523430890      0.20091781541293
  C   -2.30521321922655     -1.57606173670470      0.01138680880601
  N   -3.30924575333098     -2.44931815426184      0.07011206508257
  N   -1.05187599435385     -1.95146140669261     -0.23447924348392
  C   -0.29354292642248     -0.82110625834917     -0.19550422874141
  C   1.08098526058082     -0.87413179230828     -0.26245070619030
  C   1.77855277798006     -2.10113163279736     -0.51305304364159
  N   3.08243521003665     -2.00205495644267     -0.35598774271197
  C   3.31104285864310     -0.70863029072016      0.06094521495397
  N   4.58855196117970     -0.33399608860104      0.28785152321088
  C   2.13411932416332      0.06104133163341      0.12282380840104
  C   2.08990602061627      1.33150776675358      0.72234373395877
  N   1.24317456881412      2.30980576359971      0.65060120182747
  C   0.15228715410919      2.37764976140334     -0.16108768582914
  N   0.16293228100144      3.45655566942593     -0.97474243561032
  N   -0.95460875018313      1.67276666915817     -0.16611075356427
  C   -1.18548392228388      0.38801963037335      0.00782998722107
  H   -3.12881389375262     -3.42182131879735     -0.10276503333079
  H   -4.24638337023402     -2.14943304577683      0.26854220447795
  H   1.30836416517974     -3.02702189068194     -0.80319229597885
  H   4.78743971228440      0.54101938942376      0.73678930323569
  H   5.25261535510013     -1.07533240939693      0.42809191282764
  H   2.93857399293524      1.56011842133450      1.37131256805190
  H   0.84359346372692      4.17392130301112     -0.80256023862773
  H   -0.69795607550803      3.71135037320323     -1.42568082376353
