29
Coordinates from ORCA-job ./opt_b97-3c_parallel
  N   4.79903518671978      1.13015874475900      0.12735675859598
  C   3.73172052435313      0.66986532470598      0.05531168237172
  C   2.50202793475369      0.02129398138013     -0.06212858964501
  C   2.36754621525546     -1.39440368638730     -0.39525231398804
  N   3.41622813945729     -2.12396127536895     -0.83264948093592
  C   1.04770144047084     -1.76297461417617     -0.26091329303427
  C   0.28492294403002     -0.59025777613707      0.04859490960640
  C   -1.08622547480597     -0.48595402923428      0.09146092675638
  C   -1.99304454251115     -1.63157083463848      0.28465586711900
  N   -1.61161267244045     -2.88234460725552      0.61078474745871
  N   -3.26684482822424     -1.30055606239842      0.18210637342592
  C   -3.26442015060061      0.03835846776115     -0.11985018531831
  N   -4.44725153282334      0.63607592470791     -0.38306280400388
  C   -1.98208548740582      0.61841116776910     -0.15703124254204
  C   -1.76085731287835      1.92241991687334     -0.67340357058039
  C   -0.74108723414476      2.80623624636347     -0.52179487924191
  C   0.31932158162221      2.71406736959050      0.44408487175163
  N   1.08521784798750      1.74926099476930      0.78711349082282
  C   1.24661394785882      0.52505424508658      0.21563821135666
  H   3.34984107594592     -3.12503566390432     -0.84430359785635
  H   4.34222112479402     -1.74344394010751     -0.74046002444509
  H   0.63948228720877     -2.69083420978267     -0.62534504213400
  H   -2.33358221307065     -3.48319178026672      0.97180618011610
  H   -0.68860175188740     -3.00945133757546      0.98992177987997
  H   -4.53435862776958      1.62588797110768     -0.24578869933268
  H   -5.26913670790812      0.09084238199471     -0.19098463777777
  H   -2.59232148360850      2.30356024012827     -1.26321235646001
  H   -0.88650642468471      3.79406846154584     -0.94236803225960
  H   0.47829676610627      3.63137810239008      1.01543311859325
