25
Coordinates from ORCA-job ./opt_b97-3c_parallel
  N   3.98686716598516     -0.81084379588529      0.10743838146122
  C   2.77114996353221     -0.25367844243459      0.04175359730482
  C   2.49995219294324      1.14534878221620      0.09114874597002
  C   1.14030428785430      1.30659459225354     -0.01624095138087
  N   0.63302945176199      2.54374580797099     -0.09066007560306
  C   -0.58098185333997      3.03286365255797     -0.10128586771688
  C   -1.89763731660630      2.56134083620908      0.03926887392801
  C   -2.47344322271097      1.31036454304389      0.10272694567574
  C   -2.00366738471645      0.00473339199518      0.04552903182038
  C   -2.88480708784546     -1.07662699803540      0.09271008661936
  N   -2.29387786302232     -2.28910653622855      0.03233030278201
  C   -0.97850585758399     -2.05053031377672     -0.05035652581132
  N   -0.08425318092887     -3.03455549503247     -0.13454637888317
  C   -0.66961841485530     -0.61932760065093     -0.05097336753866
  C   0.60344572884972     -0.13025003297535     -0.07708806477962
  N   1.67385597936565     -0.99911031364643     -0.07495322682529
  H   4.81467393204208     -0.24641635176167      0.10413972571275
  H   4.08360538229786     -1.79973391056563     -0.03881497630994
  H   3.21343814685828      1.95009148773893      0.14412404377686
  H   -0.56169501632113      4.11590226592723     -0.23042757374584
  H   -2.61366112024226      3.37436921368211      0.06224863133216
  H   -3.55581232913484      1.34505559378761      0.19161159649361
  H   -3.96038284659404     -1.00025313800075      0.17133562083732
  H   0.89388656995928     -2.76921623361041     -0.10887236997533
  H   -0.40051785934770     -3.98347573087850     -0.04461558454423
