31
Coordinates from ORCA-job ./opt_b97-3c_parallel
  N   4.23148650942332     -0.30402447931703      1.75018993201868
  C   3.34785161261764     -0.81165713784649      1.18008955952405
  C   2.30095165615212     -1.36361855859326      0.44910073203423
  C   2.21040436009669     -2.71541890875731      0.06752205304041
  C   0.99353425843933     -2.94644962052956     -0.55593539265498
  C   0.21089473631675     -1.78092347802086     -0.50579124978883
  C   -1.07975261132682     -1.76169985905474     -1.02922313142344
  C   -2.23422459701914     -1.07765907420664     -0.66995542917944
  N   -3.39790887841897     -1.56112643582410     -1.18599468911462
  C   -2.39586380041073      0.01957706245025      0.25660434505526
  C   -3.61264636583995      0.03653209773224      0.96686390246422
  N   -4.62117226855597      0.08337336537793      1.55015543350801
  C   -1.60619447089719      1.17072363924564      0.34728388462089
  N   -2.11999290920600      2.23673558345194      1.00489456377340
  C   -0.32224458787589      1.40523542788483     -0.25353437624174
  C   0.07803485385819      2.67825061625232     -0.66485140507943
  N   1.40521505637489      2.80074057511311     -0.87371887354215
  C   1.94505102569290      1.63335986346995     -0.51511838892442
  N   3.24970427862922      1.41518049035697     -0.71795471136734
  C   0.89590539761667      0.64160058330474     -0.13633795769859
  C   1.08993111871916     -0.70942123843356      0.06218809001246
  H   2.97015656244488     -3.45486923035349      0.26832118917944
  H   0.64842743559392     -3.89540754722361     -0.93335326667005
  H   -1.27121354659391     -2.59306066509117     -1.70160388050601
  H   -4.27764203389765     -1.19177514987186     -0.87144788065210
  H   -3.42269708239579     -2.48702119033716     -1.57352824754206
  H   -1.49626742316030      2.95705825833013      1.31857895056786
  H   -3.01893922584139      2.17975938879967      1.45397880352633
  H   -0.57047436953421      3.53066292582645     -0.81154704972893
  H   3.76746554372056      0.77072637951288     -0.14042017443866
  H   3.76046751357774      2.21770696885186     -1.04858343477227
