28
Coordinates from ORCA-job ./opt_b97-3c_parallel
  N   -3.54282999078375      2.74564061802446     -1.02581354408092
  C   -2.56976931657222      2.23646440754064     -0.64416185632184
  C   -1.39999067061166      1.59085113217754     -0.16376469838365
  C   -0.29371748791481      2.40695645039924     -0.07273983210423
  N   0.88242080080925      2.27112396859690      0.53312511045322
  C   1.76801558147423      1.32983107772428      0.60294723648267
  N   2.88726586110897      1.63953860245816      1.34668949349476
  C   1.79868263200623      0.05255400162537     -0.05793650026382
  C   2.95806132497407     -0.63262115450250     -0.43058231863110
  N   4.24669457411766     -0.21649167120463     -0.45243883728767
  N   2.70752999475036     -1.95453239331820     -0.78409675669258
  C   1.43034069036848     -2.14172102327787     -0.57032158436949
  C   0.74989593497880     -0.93804390045699     -0.14073895908285
  C   -0.60438539250233     -0.93557677842357      0.11078620287663
  N   -1.27452678497190     -2.12783380348874      0.24572008115196
  C   -2.55111300369015     -1.81405722926155      0.40074334124050
  N   -3.49507471664578     -2.74451090641490      0.61025540706511
  C   -2.79030087297963     -0.39083980323164      0.34789923505400
  C   -1.57325582635158      0.19837030135419      0.17265304487950
  H   -0.45179120277471      3.41314587272231     -0.45255679278603
  H   2.80439812832278      2.48871482727823      1.88203969937056
  H   3.34944905615507      0.87885784367025      1.81608398670043
  H   4.43316802996153      0.77087359110936     -0.44924191331329
  H   4.88027420824755     -0.79715844510696     -0.97433051395579
  H   0.94426904742626     -3.08430661254081     -0.76272954565370
  H   -4.46754058661551     -2.50317643739329      0.59710684260137
  H   -3.24505151636823     -3.71327069124260      0.51936817110256
  H   -3.74749892291909      0.10383919748319      0.37970392145379
