33
Coordinates from ORCA-job ./opt_b97-3c_parallel
  N   5.01186776782838     -2.72202601915837     -1.40605650868094
  C   4.01980729147342     -2.24968819478643     -1.02824645755997
  C   2.81219978615211     -1.70115987087645     -0.56536287236500
  C   1.64427061122063     -2.45324231723533     -0.24004967968983
  C   0.62205599361770     -1.57535370307146      0.08336236291852
  C   -0.58810371231902     -2.02637124196421      0.71176051772109
  N   -0.43741936639705     -3.12733978758567      1.47673733167288
  C   -1.89117494801102     -1.52774200461915      0.54501981048425
  C   -2.89741146832073     -2.23428405039188      1.23875291001862
  N   -3.69629785857985     -2.84859144887249      1.82284217375867
  C   -2.39977422308556     -0.56791498975409     -0.40392511848579
  N   -3.58779806045101     -0.88897461927968     -0.94449919801950
  C   -1.89959681551904      0.72650881914325     -0.69896641892601
  C   -2.75393509414458      1.51642108420378     -1.51057095151654
  N   -3.51215389779755      2.05553785270400     -2.20717966286435
  C   -0.82550092497434      1.44374735454207     -0.13180182658062
  N   -0.92262327462580      2.77636944620310     -0.08873758497565
  C   0.26963783018014      3.24424829071545      0.34443061374446
  N   0.45602011510745      4.53669527923397      0.56859425133208
  C   1.22735284153616      2.20457136641910      0.53496797904878
  C   2.52788306568266      2.43031746493250      0.98612382954835
  N   3.58966418378539      2.71816697560123      1.36746431730089
  C   0.56493585639694      1.00820506292266      0.22741926536356
  C   1.16799884805822     -0.22654916160572     -0.00404239977369
  C   2.53226469796789     -0.35648907816629     -0.37522829988230
  H   1.57506422199293     -3.52797127980091     -0.28033693709485
  H   -1.22290481753358     -3.57674793175379      1.91632773900727
  H   0.48171554018488     -3.38763370231904      1.78075062791099
  H   -4.13623773830101     -0.20405014443593     -1.43890653294750
  H   -4.02772942800324     -1.76498127356798     -0.72597380638914
  H   1.33609898064468      4.88569448621052      0.90588572395814
  H   -0.29801145286275      5.18027839295639      0.40252873982686
  H   3.20966114639639      0.45663897355791     -0.56570497256392
