26
Coordinates from ORCA-job ./opt_b97-3c_parallel
  N   4.42380616630459      1.09403414016491      0.29644270387534
  C   3.19997808940110      0.57791895219245      0.15247468440053
  N   3.04391170360393     -0.76733488554239     -0.06990797382271
  C   1.72435891754859     -0.93007157750787     -0.13992593018687
  C   1.19452919891985     -2.17013255058295     -0.52096689460616
  C   -0.08688078787148     -2.67761748559990     -0.55241422644573
  N   -1.24353129638140     -2.32541859444513     -0.01585181824355
  C   -1.82320371460405     -1.20406915692628      0.32374162775515
  N   -2.97741486024356     -1.38089626957356      1.04403385570980
  C   -1.51710185867968      0.14406039591672     -0.04004512233959
  C   -2.45941927645391      1.17197070641976     -0.15437280160812
  N   -3.82658379662702      1.11486451905894     -0.11226173095191
  N   -1.87482120190863      2.41205036462118     -0.29118966881324
  C   -0.57424866121730      2.21264056696363     -0.21302796248221
  C   -0.22984957498333      0.82933135259951     -0.07953128693508
  C   1.08719835989347      0.42495660278895      0.03152559066610
  N   2.09217352966514      1.32095094229841      0.20631534600650
  H   5.21311836575340      0.47789750470979      0.34728373829748
  H   4.52743235525083      2.05886362020109      0.54949066735246
  H   1.95404445401626     -2.85947491201383     -0.86750570571237
  H   -0.14838843330127     -3.65502074656131     -1.02778286548866
  H   -3.28389446809617     -0.63752674267039      1.64776819491652
  H   -3.14745916351296     -2.32168600221527      1.35759865103657
  H   -4.26817589191540      1.94008310069308     -0.48396153326544
  H   -4.25296736795292      0.24977321546821     -0.39831325736674
  H   0.13597650259183      3.01933103994248     -0.29160365274812
