31
Coordinates from ORCA-job ./opt_b97-3c_parallel
  N   -5.65410171603272     -0.73083296521146      0.79626326651819
  C   -4.52475029791264     -0.56870329039775      0.56930075675864
  C   -3.18194092108013     -0.27843377643252      0.29313082858408
  C   -2.12510801284741     -1.15189316699555      0.17832322913548
  C   -0.92440155888991     -0.40557215437701     -0.02788603433323
  C   0.28087466451196     -1.06208690305558     -0.17850234593788
  N   0.28608033070435     -2.41909951152275     -0.33830257988224
  C   1.55951401130068     -2.79406788494675     -0.29034245164104
  N   1.91935653297574     -4.07463191472558     -0.43284291670246
  C   2.45936887851012     -1.69465195148075     -0.08871742601938
  C   1.69315199729007     -0.56192277463372     -0.03913711534831
  C   2.26141417838017      0.72017556135434      0.28754587385152
  C   3.51538541134345      0.62622340504898      0.93421505564004
  N   4.55203085344773      0.59204790332278      1.46484553980579
  C   1.90501254879700      2.01963411072075     -0.09939312872487
  N   2.84755742696003      2.99817098186755      0.04371830548673
  C   0.69680469978669      2.51026196384698     -0.68614518920284
  C   -0.60432333945235      2.13037100404586     -0.58539034707725
  C   -1.29511408139308      1.00730014800771     -0.09118483522435
  C   -2.67965945273373      1.06343210946897      0.11047284884829
  N   -3.48065637366169      2.16212853426341      0.08034975271389
  H   -2.16234565542644     -2.22140373691583      0.27461986282025
  H   2.87948974654522     -4.35848964579642     -0.40464504569708
  H   1.21090360861119     -4.77026670525193     -0.58361706063686
  H   3.53051551194382     -1.75291169478072      0.01110565362906
  H   3.70942583664898      2.79196278174482      0.52015718514687
  H   2.54093014816577      3.95221748417580      0.09006351394932
  H   0.83919208927068      3.46657497282392     -1.17597208898408
  H   -1.27791414028577      2.87780180435542     -0.99958450728368
  H   -3.08924729959746      3.03887049796223      0.37374361452672
  H   -4.44053236168020      2.03306687791452      0.35328929458047
