30
Coordinates from ORCA-job ./opt_b97-3c_parallel
  N   4.57475127936504      0.72621535839044     -0.71622882689112
  C   3.29743391913158      0.42966019213750     -0.39795757313309
  C   2.20522730406587      1.29381796521563     -0.31420649818435
  C   1.08840933032147      0.47090138244152     -0.06267649867896
  C   -0.23163449017972      0.85092908971154      0.10368408602293
  C   -0.65352304820281      2.18570598063065      0.51043250190849
  N   0.17329631500439      3.19746507036890      0.86626054833112
  N   -1.97409590117004      2.31831885326673      0.56364553569546
  C   -2.47616456126485      1.12032047623129      0.14017068913031
  N   -3.82018051554670      1.00960246063014     -0.03517328599672
  C   -1.48176779595214      0.15634334477791     -0.10590481947718
  C   -1.65809758846017     -1.09659726677238     -0.78432078956891
  N   -2.72296997921550     -1.18377712308456     -1.66172957899291
  N   -0.92840882390659     -2.16042652294124     -0.65408742740402
  C   -0.12677608174983     -2.36267989479395      0.44107356755864
  N   -0.66964266918199     -3.18764465097032      1.37550648526297
  N   1.10457614881218     -1.98844840885125      0.63268958425627
  C   1.68563248640846     -0.91358695501909      0.09014001935062
  N   2.99482676318059     -0.87705810886226     -0.10345918254858
  H   5.17206519279548     -0.04951387610824     -0.94401919844489
  H   4.78669721914785      1.60736967288980     -1.14647581013333
  H   2.18807004430829      2.32140150495217     -0.63857040987691
  H   1.11567073254095      2.94188581840093      1.11692204774221
  H   -0.25021686962996      3.92031091908694      1.42437709868736
  H   -4.37009401618716      1.70485532299940      0.43976596090166
  H   -4.20828558198303      0.08281011085848     -0.06820302674949
  H   -2.71862764315092     -2.02952731731676     -2.20952590137259
  H   -2.92845780915014     -0.35182567047473     -2.19117222899368
  H   -1.44286188344159     -3.76038391831081      1.09007365269399
  H   -0.03710789100905     -3.57521429628425      2.05410810170478
