25
Coordinates from ORCA-job ./opt_b97-3c_parallel
  N   4.70429746939900     -2.09823363528105      0.24269010234981
  C   3.66677924535229     -1.57289015078030      0.21941392270987
  C   2.45959607523647     -0.86411578972120      0.16153650065990
  C   1.17588340268756     -1.34341984657927      0.32013647734608
  C   0.25362821831924     -0.26849665239651      0.20826198322182
  C   -1.10916628271269     -0.50663661191748      0.16120244619055
  N   -1.63620181869827     -1.73955370874157     -0.00785931821154
  C   -2.94042216135414     -1.50482293157796     -0.19965613374804
  N   -3.81097854338972     -2.47246376586401     -0.47166005294335
  N   -3.37773708142284     -0.20076019775044     -0.10878825625348
  C   -2.27599694079231      0.47202740322884      0.15771977053196
  N   -2.29978471366776      1.72684114774963      0.60628770729171
  C   -1.41982109760037      2.66349302210082      0.52959880186212
  N   -0.43933132839696      2.89617634649226     -0.35650802892896
  C   0.61470475174262      2.18895277509933     -0.60058892846990
  C   1.03608920190652      0.94251340103080     -0.08112245236165
  C   2.38057248951472      0.54871720310154     -0.12426992199047
  N   3.47135284768418      1.31642754606518     -0.33615546713675
  H   0.89297585044398     -2.36467959186762      0.50412464752820
  H   -3.50621962309408     -3.42768734521059     -0.50617105056413
  H   -4.77749853768309     -2.24516454755092     -0.61362132032875
  H   -1.56481335671149      3.48871728712260      1.22689990818623
  H   1.29558014057514      2.65040930618375     -1.31882783340308
  H   3.37265211819400      2.27932026772816     -0.59884170852361
  H   4.34139480616817      0.87470348993598     -0.57664517091447
