27
Coordinates from ORCA-job ./opt_b97-3c_parallel
  N   -5.21028249596663      0.05577218389421     -0.17050765279229
  C   -4.06309444817179     -0.11250733991101     -0.27110808416354
  C   -2.67094565437988     -0.24795318978783     -0.34087893582294
  C   -1.94220806573304     -1.27153600458591     -0.93905556249327
  C   -0.57270114248359     -1.07596116045254     -0.66789777340231
  C   0.29988456445007     -2.12897168260466     -0.89988484409539
  N   1.44589009884011     -2.44912640113685     -0.32897090347608
  C   2.25606855106678     -1.66635820697811      0.35073947949641
  N   2.83542532167564     -2.17842254676330      1.45447794869062
  N   2.74758654410393     -0.46580129889216     -0.03423065013913
  C   2.14703970107985      0.65735048280917     -0.21743833096799
  C   2.86808243656425      1.86116449828585     -0.50639633978803
  C   2.03112282028588      2.90219235817573     -0.22778978384515
  C   0.72543692219301      2.43907110328389      0.14808409134159
  C   0.69017974947197      1.06303669173184      0.07899225131296
  C   -0.43703448642158      0.21678359203762      0.03832028886751
  C   -1.75574262351506      0.66944665258445      0.26037582491674
  N   -2.13912205744369      1.84547847360790      0.83913285211536
  H   -2.36314360168482     -2.13964081567742     -1.41906404214776
  H   -0.08844591264381     -2.90859167693997     -1.54945832394821
  H   2.67553131243569     -3.14877082693127      1.65988766120920
  H   3.67384621095758     -1.74903199189080      1.80289912765237
  H   3.92174533960050      1.89181440169578     -0.72326269771977
  H   2.30032316802694      3.94788919755426     -0.28110300566799
  H   -0.12462194946393      3.09040000204941      0.25005333716222
  H   -3.11685495632880      1.91349462722781      1.07377803205846
  H   -1.53442215651722      2.20045874451096      1.56152664064597
