28
Coordinates from ORCA-job ./opt_b97-3c_parallel
  N   5.05526509151352      0.05728207428687      0.12490744301207
  C   3.93561764599304      0.37220194861653      0.11701066434228
  C   2.59837205090792      0.78067576351810      0.10882985311304
  C   2.11999462142247      2.12779896391771      0.18213355860938
  N   0.81700667921550      2.21373989441437      0.06820972509746
  C   0.33265538317772      0.90140617218745     -0.03823879804954
  C   -1.01503448130694      0.66180890718163     -0.11203120770922
  C   -2.01284289805184      1.76502449424003     -0.30781822081650
  N   -1.64594521034696      3.01832458090492     -0.57063442595186
  C   -3.28186168556060      1.23474126248602     -0.23621322512307
  C   -3.15062069890177     -0.14243440972469      0.05372380532602
  N   -4.18565781079734     -0.96483558495718      0.29294201207198
  C   -1.78269267223940     -0.53124477983581      0.11037328637825
  C   -1.38178875158430     -1.71890165241478      0.77990768102925
  N   -0.29344639210969     -2.40707262684374      0.73833299384313
  C   0.68275923991012     -2.26094283514981     -0.22767719668724
  N   0.78675391607249     -3.36619681494504     -1.01384381843557
  N   1.55754306055821     -1.32264639293967     -0.41759575677153
  C   1.47629788538263     -0.03465476307276     -0.05321906889880
  H   2.73530188808150      3.00613852673129      0.31548826488934
  H   -0.66001762500737      3.23162618379174     -0.39399350891684
  H   -2.33515171083679      3.74878687434625     -0.58677256903255
  H   -4.20888817663890      1.76566425246624     -0.38269563250275
  H   -5.12775102927159     -0.63412495735339      0.19959178906352
  H   -4.05626365503115     -1.95931998749943      0.29753433282719
  H   -2.11360444560301     -2.10592280687102      1.49541657533373
  H   0.40866374468167     -4.22243404744758     -0.65033751505542
  H   1.62307030810770     -3.43519372893351     -1.56787578598509
