26
Coordinates from ORCA-job ./opt_b97-3c_parallel
  N   1.85404818243219      4.31306264874583     -0.74931737684230
  C   1.46609522634722      3.25999993065925     -0.44821002597897
  C   0.97152649279384      1.98272283391686     -0.07320665666627
  C   -0.31438176047876      2.03675126750783      0.62061641905077
  N   -1.30206487597279      1.23622480653846      0.70734467377478
  C   -1.56760629128334      0.01038356875208      0.18824755151579
  C   -2.86784871481225     -0.35784366032180     -0.10699267652069
  C   -3.99055781037609      0.47326222636404     -0.02556466248485
  N   -4.94847188201053      1.12934489933420      0.03712562208977
  C   -2.90655827412864     -1.77332746108412     -0.46339905507081
  C   -1.66730891027157     -2.28604706469214     -0.33066403396915
  C   -0.74806868139893     -1.20796883376313      0.01986960752162
  C   0.60737700314171     -1.36410465900072      0.07110384843228
  C   1.23333108143789     -2.69347750569165      0.08678169392794
  N   2.52692205595989     -2.64843062012731      0.13427501039748
  C   2.85152947575112     -1.28338067000132      0.09233636741251
  N   4.14751242750972     -0.97066238644358      0.07786642902594
  C   1.72508823757970     -0.44926079852928      0.06359822416117
  C   1.82948241430396      0.93057452821585     -0.21948200748773
  H   -0.45689101678896      2.97769399511686      1.15122827995604
  H   -3.80063945668154     -2.29504659731102     -0.76217531439958
  H   -1.38399058158483     -3.30639084967170     -0.52164079431627
  H   0.70758372196549     -3.63522101222388      0.12192139875542
  H   4.47386705134461     -0.02808214706935      0.18024836583912
  H   4.82162067731951     -1.71486732593804      0.09785291345450
  H   2.79814362200134      1.22236020371752     -0.61511047837819
