27
Coordinates from ORCA-job ./opt_b97-3c_parallel
  N   3.15451249146115      2.60159526763578     -0.30198960699198
  C   2.55256887464658      1.61395265424877     -0.15710950583462
  C   1.96014047872851      0.36249779629467      0.00160186351962
  C   2.71957704979622     -0.84613437094786     -0.06477150637436
  N   4.03941387550822     -0.92021583056320     -0.23557455113519
  N   1.96183478206625     -1.94449650709570      0.04988762606263
  C   0.67980849850640     -1.52431477930024      0.16202996155965
  C   -0.27741497856077     -2.47849890005125      0.46409714707817
  C   -1.67018365307210     -2.46501598866785      0.52320932476313
  N   -2.58025811353426     -1.68237901941161      0.01348121653153
  C   -2.61436626395460     -0.44624257066691     -0.44862301180630
  N   -3.60447324833731     -0.21386810819144     -1.34276909658822
  C   -1.89470387682853      0.68493562856990      0.02745691163995
  C   -2.49657618977507      1.93062476712396      0.18679969473324
  C   -1.52505582116807      2.85418336447540      0.62103002956567
  C   -0.29900973510555      2.21761356769054      0.67243258260011
  C   -0.46282001754318      0.85089531558530      0.32793086745624
  C   0.61391951191939     -0.02036355083512      0.13721116391080
  H   4.47533311563348     -1.82082474910758     -0.31457605803217
  H   4.59418426764307     -0.09160785274207     -0.35243791093592
  H   0.15936917691212     -3.44090310621038      0.69996206753253
  H   -2.09586440007637     -3.35036201915244      0.99109646210581
  H   -3.60176723784959      0.62510452576604     -1.89022309962809
  H   -4.19667367336014     -0.97790124433279     -1.61619168566768
  H   -3.54984363048743      2.12930689907481      0.06409269832877
  H   -1.71098810144248      3.88623966506748      0.87531468219096
  H   0.63138521117417      2.67402280824388      0.96033832021549
