29
Coordinates from ORCA-job ./opt_b97-3c_parallel
  N   -2.94443984872139      2.65001624538768     -1.03615564774375
  C   -2.06801168814696      2.04943556527219     -0.55971773710583
  C   -0.92730752982170      1.40746088360486     -0.03000744731343
  C   0.16870490294715      2.26352216238339      0.20686709504521
  N   0.14162173969063      3.51045566421756     -0.30931546522101
  N   1.23517004188656      2.06807828654717      1.01521888306950
  C   2.19614504200263      1.21106042471375      0.94472086024326
  C   2.37406890891409      0.06911040078576      0.14177237901554
  C   3.62246205742045     -0.54403010378135     -0.06644739811103
  N   4.85447714377254     -0.05115679230762      0.14718908741603
  N   3.51265431007538     -1.81225544479769     -0.60463817365048
  C   2.22286800152326     -2.05054141585651     -0.68294693444538
  C   1.41110171806613     -0.93745273476189     -0.26064964632663
  C   0.04599918555037     -1.05476494887623     -0.10630066978802
  N   -0.53927529848764     -2.29184420666563     -0.19473656941948
  C   -1.83394215216175     -2.11504091633799     -0.00522407348194
  N   -2.71785991481457     -3.11292596583645      0.01141819724936
  C   -2.18438735791119     -0.71926515658135      0.19757858951865
  C   -3.48982456933528     -0.30064170373668      0.45713975198303
  N   -4.60797788767236     -0.08447441844418      0.69915587221403
  C   -0.99862865030812     -0.00604085046400      0.11941517277900
  H   0.76299784627486      4.18973985771312      0.09063607490549
  H   -0.67361981708277      3.84357262479885     -0.79612999969513
  H   3.00120032524158      1.41274648314081      1.65580732491180
  H   5.62652533335002     -0.69260322673603      0.11354851735271
  H   4.99460197496588      0.83065869288084      0.60274657486259
  H   1.83620883409948     -2.98933874000833     -1.04486128429771
  H   -2.40187506106489     -4.05763955245311     -0.11286980830180
  H   -3.68886145015308     -2.94053606260004      0.19977194493441
