29
Coordinates from ORCA-job ./opt_b97-3c_parallel
  N   4.37889872641585     -0.58010445188143     -1.47653027390375
  C   3.33009472302988     -0.38056689169059     -1.00810945210640
  C   2.08149104163682     -0.11031482409624     -0.41151174316016
  C   1.18052323477590     -1.14758354528066     -0.36847531925980
  C   -0.13728982484360     -1.28242109194137      0.08401667526664
  C   -0.72204770158552     -2.57919573139046      0.22389833919034
  N   -0.03095714649736     -3.73121963796765      0.22887482351936
  C   -2.12739209773530     -2.50124125016725      0.30887505596936
  C   -2.48063505199189     -1.17318254240065      0.19017215578567
  N   -3.69497685990577     -0.63235500870633      0.21844453842744
  C   -1.23591062021133     -0.34841813265319      0.08948638766313
  C   -1.27520697614121      1.00783384137856     -0.06475812619784
  N   -2.48580892211997      1.64609079846676     -0.37542850057693
  C   -2.19088233117693      2.91761435201011     -0.55168807137477
  C   -0.82195746588803      3.21451903366347     -0.31499713698163
  C   -0.20161703746429      2.02988005984593      0.01413826276386
  N   1.05295777986765      1.98789550580065      0.52174126237757
  C   2.01200193727637      1.14548498037740      0.37310178491382
  N   3.15807368269678      1.41410747977208      1.06199260413056
  H   1.59032098536723     -2.06432568779809     -0.78644118379918
  H   -0.50594948541532     -4.60243453141546      0.37353881059185
  H   0.95889342633471     -3.73001077723584      0.39170054416391
  H   -2.79940504680036     -3.33176045608012      0.45557963833748
  H   -3.73497416053278      0.36236876429495     -0.03442820755494
  H   -4.51023098829550     -1.21805765636530      0.18892353825725
  H   -2.95879675139934      3.62384018839506     -0.83916256968852
  H   -0.35501964547553      4.18501935946049     -0.32156010657791
  H   4.00590603374884      0.92910011812726      0.82882995334706
  H   3.24704696643044      2.34302979117800      1.43475473367666
