31
Coordinates from ORCA-job ./opt_b97-3c_parallel
  N   -4.30095734730808     -3.02429613060468     -0.02131360043234
  C   -3.43942692825766     -2.24126098081423     -0.00476951049766
  C   -2.42635174905037     -1.24876031989629      0.00937060849730
  C   -1.14375291038839     -1.79023245363572      0.00780458421160
  C   0.17647446462680     -1.37043685631055      0.00642752724806
  C   1.16256236415402     -2.36979284029460      0.00622588776571
  C   2.43854468437340     -1.80492727950976      0.00131346926799
  C   3.67643600198414     -2.45692065152196     -0.00263018803576
  N   4.73704075846172     -2.93610161960754     -0.00700610243359
  C   2.29665410256660     -0.39456552274903     -0.00413517508582
  N   3.30428120121534      0.47560484248825     -0.00915835136691
  C   0.88646346274434     -0.07269988782790      0.00053549481062
  C   0.44830691480226      1.23417712616961     -0.01836920480634
  N   1.35410420629413      2.25203456859157     -0.03290220431270
  C   0.65394926438967      3.40401378044172     -0.03515405094240
  N   1.29661142715710      4.58193333447185     -0.07574168225776
  C   -0.73422272486618      3.19757743393848     -0.02253077441250
  C   -0.94775225934672      1.82178288403980     -0.00975865083906
  C   -2.24653158262311      1.32495826088602      0.01080105753998
  C   -2.91613695865083      0.10091349644053      0.02505469969443
  N   -4.27564989247022      0.21351972916685      0.08279211188855
  H   -1.19172619574693     -2.87320860119918      0.00174810011518
  H   0.95926135063118     -3.42837015440773      0.00902542025457
  H   4.25546949856780      0.15294106638632     -0.03791792446626
  H   3.05070662188188      1.45940384388674     -0.03658620424996
  H   0.79963373861110      5.43838181875944      0.07954850613854
  H   2.29233277562731      4.59163198118839      0.05256260052327
  H   -1.49825991526661      3.95731973282339     -0.02562813041119
  H   -2.95297270693181      2.14945174501749      0.02985307990359
  H   -4.86357957548545     -0.59343665181596     -0.03089987730904
  H   -4.70466985099646      1.10838104509862     -0.05611678790013
