32
Coordinates from ORCA-job ./opt_b97-3c_parallel
  N   -4.94417922194993     -1.19780221513285      0.54813693061115
  C   -3.98400141817967     -0.57987865671529      0.32362330746461
  C   -2.80678806940933      0.13591302074587      0.07007287634106
  C   -2.72730185016682      1.49508686931585     -0.28829978345741
  C   -1.38998385457619      1.84935329418450     -0.41250885449484
  C   -0.94121290705414      3.08791460994833     -0.86973490305738
  N   -0.52457789926557      4.12796896152837     -1.19699636955495
  C   -0.57743712783861      0.68168523154984     -0.14415335473192
  C   0.78932605105965      0.63975547994510      0.09601704389790
  C   1.64816093084987      1.71859466048924      0.70264137202269
  N   1.24320986060413      2.90402646737656      1.14607453421194
  N   2.88370115833575      1.29559366851686      0.93346182494390
  C   2.92500117854835      0.01915293484723      0.46154657234973
  N   4.08216035838427     -0.64950698115899      0.47288676365749
  C   1.67293860937055     -0.45215517530668     -0.00593449592849
  C   1.50098604842902     -1.62487311817494     -0.86371002461332
  N   2.46141190543132     -1.76206116294587     -1.84792105721887
  N   0.61579735339498     -2.54589898766644     -0.77476544886802
  C   -0.29447864810909     -2.63169623956917      0.25254254523036
  N   -0.24479770613489     -3.84508842852313      0.88114896060827
  C   -1.27891361140026     -1.73095526188884      0.58199283328347
  C   -1.50417295558515     -0.41964667139451      0.11882470404782
  H   -3.56712300414653      2.14303513018267     -0.47687128984083
  H   1.95194810828991      3.49428665144595      1.54929245933437
  H   0.44621386841150      3.36860644167400      0.74123768381679
  H   4.16160559655693     -1.51975940282948     -0.02333213973754
  H   4.91973766308077     -0.14831200323298      0.71117291104651
  H   2.25160611840299     -2.47966819994668     -2.52494592855485
  H   2.79531336858432     -0.90321598533208     -2.25452472334256
  H   -1.03601571650456     -4.11981970828118      1.43783272148562
  H   0.19373018969454     -4.58667141993276      0.36286242486281
  H   -2.07555999730812     -2.13018127091865      1.20069992838454
