28
Coordinates from ORCA-job ./opt_b97-3c_parallel
  N   -4.63503678462189     -2.49094761361970     -0.42123492296577
  C   -3.70857494908280     -1.80210397842115     -0.28915149151194
  C   -2.59971219226404     -0.95587604653887     -0.11988777197752
  C   -2.66036395453587      0.37862691198549      0.33349426288440
  C   -1.38232180968271      0.93732334966163      0.27671628486483
  C   -1.18206571467620      2.30222340926775      0.64143895130266
  N   -2.06883297817575      2.82406551810555      1.51564137808123
  C   -0.32901546359237      3.22967044522114      0.01019143453311
  C   0.81888128704681      3.07286172558669     -0.73311281976077
  N   1.77842979321773      2.17061000268041     -0.71204659895994
  C   1.93556225832485      0.94430735732068     -0.31323938883387
  N   3.19632577870039      0.47885549757861     -0.12811005128184
  C   3.08527680419431     -0.83725323655277      0.03777237735397
  N   4.13702487384307     -1.61437499944775      0.27211646770117
  C   1.72180787954571     -1.31356226049674     -0.04406668125085
  C   1.38954453605400     -2.65097761129962      0.16593080278199
  N   1.21846137906411     -3.78860181872957      0.35000236816730
  C   0.92851659037967     -0.18042408166067     -0.18776358369486
  C   -0.47450484843935     -0.12441743547831     -0.19165754031527
  C   -1.26704228678843     -1.26609073921485     -0.40292925280291
  H   -3.57762398298551      0.89743302210785      0.55749985278242
  H   -2.70501245413286      2.23449690805866      2.01742806849016
  H   -2.05485934113825      3.79979056357202      1.74694371089977
  H   -0.67458415571902      4.25705103035654      0.06429272802128
  H   1.07424662957441      3.93309414844239     -1.34906277053541
  H   4.03786278967411     -2.60891336612605      0.37300446870509
  H   5.04980434239749     -1.20061058530034      0.34022614586128
  H   -0.91645287288090     -2.22164910576114     -0.74905112243983
