28
Coordinates from ORCA-job ./opt_b97-3c_parallel
  N   -1.11943331208682     -3.44506443295875     -0.83105381725263
  C   -0.92963264674541     -2.19191240998209     -0.28016126430657
  C   0.24418616166439     -2.12109173170282      0.56840022558730
  C   1.22344860805537     -1.18441104811020      0.61894063102169
  N   2.39682062996317     -1.51308301732912      1.32001915368563
  C   1.28434547521726      0.11343588132382     -0.01911177849575
  C   2.47251378973527      0.76014526309596     -0.36727322548456
  N   3.73357247103184      0.26534893530741     -0.39264140918266
  C   2.19711323023906      2.15891929468135     -0.65994657936840
  C   0.88964595343300      2.38946959212679     -0.43159746477049
  C   0.24588581108593      1.12219717112202     -0.08941527573009
  C   -1.11295787217294      1.06564212547778      0.05079987949412
  N   -1.83173221246961      2.24505509452360      0.25963065991201
  C   -3.08567221701961      1.86796115203714      0.39117309790069
  C   -3.29169759579298      0.46695133495947      0.20116224080040
  C   -2.05550994941492     -0.08614655902105     -0.02856663466556
  N   -1.88123800695543     -1.34718958293330     -0.49483978204229
  H   -0.29384411120776     -3.94700144772175     -1.10963965660974
  H   -1.88483748775852     -3.48938827338218     -1.48492242471367
  H   0.41750210423885     -3.03175913472922      1.13314286617870
  H   2.31538369103467     -2.35287553220167      1.87153831054643
  H   2.75621628004538     -0.75130032246421      1.87630786872023
  H   3.86307475218648     -0.72496147809686     -0.27168904266674
  H   4.43919191646318      0.76469515371440     -0.90179658986253
  H   2.93823485062567      2.86844896717455     -0.99720367685934
  H   0.33990592067686      3.30552814669279     -0.55405020104723
  H   -3.85567189546232      2.59774361276156      0.60969103743594
  H   -4.23300598511004     -0.05650545756531      0.16239831027532
