31
Coordinates from ORCA-job ./opt_b97-3c_parallel
  N   4.75391646370793     -2.58894279433940     -0.90743652673387
  C   3.77887774221418     -2.00620754051196     -0.65254099730124
  C   2.61963921949761     -1.28119723329928     -0.30124468214897
  C   1.40068488446205     -1.76752529681008     -0.74985284122051
  C   0.06922962833913     -1.49100727329424     -0.45703437519462
  C   -0.88098996765663     -2.48004269713063     -0.74058394247435
  C   -2.12854432923339     -2.11899720908305     -0.22351693514570
  C   -3.30360457459574     -2.87886873512432     -0.20473501180648
  N   -4.31005185875260     -3.46067741632514     -0.15864352789410
  C   -2.01676333587421     -0.82451057285708      0.34528912163228
  N   -3.00527371323123     -0.23447952012583      1.03860125489768
  C   -0.67011320870770     -0.36132291360216      0.16176467141220
  C   -0.28500323617417      0.96896480655438      0.18287904375167
  C   -1.05635644215505      2.13720454615806      0.04069013132985
  C   -2.39522767325459      2.31990042688561     -0.28999377538387
  N   -3.50633628032842      2.56001444256138     -0.55284127817560
  C   -0.11523445194431      3.22064434153603     -0.04897990380833
  N   -0.43463375538424      4.48251405651626     -0.30435082326331
  N   1.15884625422657      2.84493147729438      0.12423418563511
  C   1.13677493738336      1.51194576437964      0.30188323173807
  N   2.20106238160051      0.91063712454006      0.73528881726853
  C   2.80338724698286     -0.24485904290680      0.68802289589535
  N   3.75960846184953     -0.44224585122250      1.61485052148767
  H   1.51084106406351     -2.65026861365968     -1.36901584169949
  H   -0.66500435523820     -3.41593419983512     -1.22981383133067
  H   -2.94606127490744      0.73373925975536      1.29114343349542
  H   -3.94176639401092     -0.58487120100345      0.92459711409517
  H   -1.38821617561540      4.75732477220581     -0.46221305690608
  H   0.29816651580226      5.15913501971342     -0.42576562463224
  H   4.32831702744836     -1.26986709703445      1.59721327797081
  H   4.06562361438520      0.33973809556383      2.16617268960541
