28
Coordinates from ORCA-job ./opt_b97-3c_parallel
  N   3.58162128300885      1.59957367257177      1.64028340772531
  C   2.60472628129985      1.40107734813470      1.04322614593776
  C   1.37646654221223      1.18614140249063      0.36598299647214
  C   0.55764393723115      2.30074139712928      0.30676089832399
  N   -0.54895686181601      2.53405657167055     -0.37445033056792
  C   -1.65826679356564      1.89075924699096     -0.56078682143928
  N   -2.56273091062229      2.49721200106647     -1.38589813185120
  C   -2.11269138332498      0.67779381491128      0.07824912343844
  C   -3.45566124168608      0.41428872808097      0.34998696455403
  C   -3.67546608508264     -0.94218754271358      0.64365176830717
  C   -2.47441740663268     -1.60428299097147      0.48137691753459
  N   -2.19838298823250     -2.89487392746126      0.67991342409931
  C   -1.41784670859772     -0.58153217763390      0.13886271075204
  C   -0.11491244387629     -0.92762727556835     -0.11574147525162
  N   0.19336619526980     -2.27202074926342     -0.36514975825082
  C   1.47992451248301     -2.33528261150348     -0.58082429844312
  C   2.12443949887189     -1.05879787783560     -0.44033858259946
  C   3.49431949733872     -0.85055263239750     -0.64818488973269
  N   4.62887240484253     -0.74585759531117     -0.87677505184429
  C   1.12998938296723     -0.13590415605682     -0.13358649644047
  H   0.95545170147417      3.18202735402260      0.80299451995595
  H   -2.23945073644107      3.31524758512264     -1.87466623016660
  H   -3.23445525914381      1.92402631805591     -1.86278821096212
  H   -4.23216207203987      1.16471430142199      0.31716940798601
  H   -4.61286425847683     -1.38816113118261      0.93238129630501
  H   -1.30295759766077     -3.22442772062430      0.32428812365097
  H   -2.94236726022172     -3.54144163590703      0.87328361899412
  H   1.97131080902186     -3.25856045893668     -0.85152771008598
