27
Coordinates from ORCA-job ./opt_b97-3c_parallel
  N   -4.96960638745173      0.57407369034026      0.49622142003549
  C   -3.82483223968805      0.45737310522653      0.32543421916131
  C   -2.44234972039423      0.28435178724751      0.07695703024304
  C   -1.61599114769244      1.34691750736452      0.40204008600757
  C   -0.28759959831340      1.68023599406506      0.16209041677937
  C   0.08711783292672      3.02606258349016      0.28252296012245
  C   1.41624148129563      3.18446584800570     -0.13316325378138
  C   1.94083967467575      1.94261192955826     -0.44419898866178
  C   0.94633884251634      0.94693269118066     -0.26056435279996
  C   1.22057772179337     -0.40964662896162     -0.19543827458473
  C   2.49210532598426     -1.01844897499183     -0.07551194418752
  C   3.75440395799024     -0.42113206231990     -0.11359813191292
  N   4.82264298363489      0.04116255294814     -0.15023182637569
  C   2.30849681379103     -2.38773038141920      0.25288300867132
  C   0.97108422272177     -2.71348072159759      0.28211169801694
  C   0.22886225900561     -1.56687647444014     -0.06222266642567
  N   -1.02045940647303     -1.65810937810484     -0.41688482074302
  C   -2.08786815598842     -0.92915837319396     -0.61253228107701
  N   -3.00199650444389     -1.45419741534382     -1.45618510038242
  H   -2.16616630512718      2.16776733058043      0.84801079821353
  H   -0.57835901752772      3.81531890029036      0.59617816650260
  H   1.94683210502070      4.12170697194747     -0.19640373188523
  H   2.95344982281591      1.75540878704698     -0.75068444711327
  H   3.12789116432027     -3.06360284966313      0.44452876700648
  H   0.54166416680585     -3.69029818399230      0.42168680248753
  H   -3.90473267174704     -1.02744535252754     -1.56603578652000
  H   -2.88882551205319     -2.40968362443544     -1.74503197259666
