30
Coordinates from ORCA-job ./opt_b97-3c_parallel
  N   3.99036953617005      0.39855039451094     -1.41145695226348
  C   3.04996293063517      0.86227807955552     -0.89632935594084
  C   1.92839752099014      1.36469343149578     -0.24800483938417
  C   1.79692640141701      2.69225545620044      0.21665322743105
  C   0.51672735372821      2.90051676098790      0.68748700612010
  C   -0.26724012775272      1.75086856484065      0.44010120683353
  C   -1.62939902845543      1.76965433559924      0.67796455144613
  C   -2.70981643910399      1.09585409214374      0.08482727612291
  N   -3.91446638203717      1.74589518293860      0.18932475305379
  C   -2.75203473301928     -0.06865142482301     -0.70234085845894
  C   -1.97293018195717     -1.20921775822465     -0.66974454390574
  N   -2.48950827339149     -2.30749165861600     -1.30473213043514
  C   -0.73591124556559     -1.45710639837655      0.01124596050361
  C   -0.35547497139852     -2.73329921170242      0.41132793491698
  N   0.95086223817037     -2.83837345301420      0.74975400080470
  C   1.50110494630170     -1.65114993612427      0.49836736729282
  N   2.77622958708843     -1.41916923371326      0.87125928996540
  C   0.48115921644606     -0.66428805842690      0.05585483062290
  C   0.68030716677180      0.69736682296000     -0.05689733573552
  H   2.58211030070022      3.43098599105157      0.16626665841717
  H   0.12264873027416      3.83374108171905      1.05641895518381
  H   -1.93575280805215      2.63715604684223      1.25561345861151
  H   -4.76156046214567      1.21460950606093      0.10381311372671
  H   -3.97594118506229      2.56468373594252      0.76600739538856
  H   -3.64344298989907     -0.14290518072614     -1.31732730610206
  H   -3.32383077405592     -2.20247916872014     -1.85466075928748
  H   -1.84603873527584     -3.01104425528599     -1.62059006540281
  H   -0.99513870623276     -3.60238357051504      0.46797748961749
  H   3.36356948688169     -0.81102396898519      0.32127656173416
  H   3.23826067513023     -2.24132618489561      1.22548075502304
