29
Coordinates from ORCA-job ./opt_b97-3c_parallel
  N   -0.60792610181748      5.00042648072956     -0.38831278290935
  C   -0.55745269998786      3.84928532546566     -0.24202902591006
  C   -0.49860837291594      2.43653167720543     -0.07040183979617
  C   -1.70112721130726      1.78186934990533     -0.31068398277123
  C   -2.17798708684254      0.49374822046043     -0.10977241366361
  C   -3.54754716940358      0.25393239231843     -0.15522414656019
  C   -3.84000590823648     -1.08645606649355      0.14693012494608
  C   -2.65374544739325     -1.77430794005072      0.32263032201276
  N   -2.53233737660535     -3.09236830382563      0.64537237480087
  C   -1.54339069757929     -0.85047993330006      0.09807880528784
  C   -0.26744351852700     -1.25568959166799     -0.16556338447525
  C   0.05427884969080     -2.61109570640247     -0.59733470666308
  C   1.36064739093856     -2.66251080901647     -0.92894480809117
  C   1.97811766537949     -1.38399689192740     -0.62385419760585
  C   3.34119229125608     -1.13843512748496     -0.83853208547384
  N   4.46714968290232     -0.98914322070237     -1.08546111360292
  C   1.01544574837114     -0.50142127047050     -0.16596016954608
  C   1.35064319480863      0.74697175427348      0.47187362234669
  C   2.57511263861440      0.74102890368931      1.19945819546949
  N   3.53602727097236      0.74058324410745      1.85194381305322
  C   0.73023450999910      1.97354832248755      0.45097666237683
  H   -2.49048482690092      2.46003823446621     -0.61399593025327
  H   -4.28434602209655      1.01643822179064     -0.35515888045922
  H   -4.82872396944027     -1.50559901500867      0.25198148566618
  H   -1.68941213685613     -3.37590441494363      1.11615293728881
  H   -3.35981718938624     -3.53906174950593      1.00221187604830
  H   -0.67922876562681     -3.36562195412907     -0.81820921157121
  H   1.88129001291956     -3.48478633468111     -1.39234561657462
  H   1.32956594547062      2.76456582941096      0.88383548432980
