29
Coordinates from ORCA-job ./opt_b97-3c_parallel
  N   -3.25210727193318     -1.98400651990798     -1.84607124241549
  C   -2.41973989124673     -1.74954863905093     -1.07142233279522
  C   -1.36192441204792     -1.46750454897040     -0.16066993332973
  C   -0.74094485934709     -2.53698772411425      0.39062699177216
  C   0.40581988580234     -2.59476075852718      1.24450429024500
  C   1.57395791899974     -1.93811043800791      1.11084199693853
  C   1.99659192465067     -0.92495402271868      0.18061279703235
  C   3.33526060021354     -0.80362931602726     -0.20154219610066
  N   4.31689439572696     -1.68593835980917      0.01276512453980
  C   3.55567416170673      0.48219950218793     -0.86334079700041
  C   2.40264953464980      1.16419531185019     -0.81945966068543
  C   1.36756657198139      0.30812567856471     -0.19611315204605
  C   0.06998988851769      0.73672164086332     -0.02181386508141
  C   -0.33482572708914      2.14694731101388      0.06917178976101
  C   0.49963379400883      3.27482943871538      0.08545425402461
  N   1.17576452407430      4.22050397176691      0.09029787572377
  C   -1.68089105144686      2.19249447158331      0.30484730268099
  C   -2.18749738269691      0.84806975906961      0.29755803687726
  C   -3.54412592008619      0.53520818288101      0.48228995706432
  N   -4.66802934478608      0.31671424177551      0.67761436385005
  C   -1.13931722090993     -0.04583280917385      0.11399367984739
  H   -1.18917673793208     -3.50054664624491      0.17118113639960
  H   0.37747178865036     -3.38184009633752      1.98990192999392
  H   2.35168473194853     -2.25019467235666      1.80606743396723
  H   4.12477966935257     -2.59784768353434      0.38676087014088
  H   5.26323564394407     -1.48782411508761     -0.25376170001776
  H   4.48163897059826      0.79161532053238     -1.32241297781685
  H   2.21588020199201      2.12947357850865     -1.25291505909132
  H   -2.26910018949592      3.07546231525589      0.48695510062162
