32
Coordinates from ORCA-job ./opt_b97-3c_parallel
  N   3.54653939170093     -2.76073695761390     -1.27435325006990
  C   2.64720166614817     -2.20308069964238     -0.79383158084830
  C   1.49037767520367     -1.59924636692985     -0.22994559419402
  C   0.54227026938294     -2.51195093340320      0.24614616472535
  C   -0.71643912170259     -2.44406617201330      0.79786253598583
  C   -1.76905308503197     -1.51449757736888      0.71991148629467
  N   -2.96936129728338     -2.00443072531894      1.20175056468651
  C   -1.82079079332243     -0.24447312261568      0.11015769265938
  C   -3.02627364287950      0.34246231664159     -0.34360008908478
  N   -4.26667688653235     -0.25082704369112     -0.45792344940369
  C   -2.80825982454533      1.69291058549963     -0.66797565559166
  C   -1.49084479761606      2.01328479120738     -0.39783919892918
  N   -0.92949097862884      3.24435855110201     -0.62897786056809
  C   -0.79831603710992      0.82531617748533      0.06490956494014
  C   0.56328367899510      0.84216313292713      0.32316917027514
  C   1.32896362199388      2.00480565377303      0.58162991641928
  C   2.66080193030555      1.63880416920204      0.41862031294142
  N   3.77208791405040      2.38138515255812      0.58345445305287
  N   2.81140217778038      0.33281202577719      0.03439813348359
  C   1.60088731937129     -0.21459572515648      0.04394137764265
  H   0.92711171590415     -3.52633705337722      0.23582559851819
  H   -1.01670025198639     -3.38237216904792      1.25298976095375
  H   -3.62701109723707     -1.33463332588834      1.56198575365503
  H   -2.92581851766427     -2.85995038663787      1.72649832302067
  H   -4.88901800686598      0.21634294690678     -1.09631078280974
  H   -4.25802106766754     -1.24938438502671     -0.58934043334418
  H   -3.54548385314510      2.35820105579846     -1.09299813135823
  H   0.07491379276575      3.22520875603280     -0.75156980584559
  H   -1.39668572515284      3.77952278277191     -1.34405310674939
  H   0.96723698100949      2.92542756028411      1.00618555303968
  H   3.72434751678426      3.25355602836367      1.07638547375817
  H   4.64815905797867      1.88830850290153      0.60037898064187
