32
Coordinates from ORCA-job ./opt_b97-3c_parallel
  N   -3.93598814182468     -2.94749744024949     -1.35630707602122
  C   -3.14313759286551     -2.22838421189138     -0.89807843889436
  C   -2.17978867291453     -1.38122898613397     -0.30886969577940
  C   -2.41455112255270     -0.02572333831427     -0.36361400037300
  C   -1.76371956658732      1.10857736286021      0.12548213090348
  C   -2.46607060381963      2.33401920868750      0.22293509715160
  N   -3.80097194820995      2.52232547675400      0.12385769615055
  C   -1.54937706315729      3.38616222517712      0.52613812777851
  C   -0.29330342822825      2.86097888503196      0.56505777858013
  C   -0.34624768634689      1.44004902084215      0.34458128036752
  C   0.78758512204807      0.67344032155711      0.20542210745557
  C   2.11560186172674      1.15948453000851     -0.03727346239720
  C   2.56732028096106      2.45715762562598     -0.26450232962917
  N   3.03279046614768      3.50824315345358     -0.46189580185214
  C   2.97208168578955      0.05842936256609     -0.20016279105307
  N   4.26671782420076      0.10057332965185     -0.50344856772986
  C   2.22640102480112     -1.15030672418926     -0.00267356710774
  C   2.79181453387238     -2.42529284627063      0.01488893262985
  N   3.32309470070149     -3.46117691628761      0.01424941073346
  C   0.89778670602537     -0.81883880545637      0.26607961301831
  N   0.05716113880520     -1.73757424132431      0.71505764639178
  C   -1.19084952584223     -2.03461873049649      0.54839786806582
  N   -1.64126008169907     -3.10094950848320      1.24454479077020
  H   -3.35247750948306      0.19607654497275     -0.86700483777295
  H   -4.14931568976374      3.44229577112222     -0.07604690136510
  H   -4.40590374091068      1.76385455911292     -0.13431120073741
  H   -1.82293026655572      4.41304133385681      0.71347493423270
  H   0.60450720993625      3.41361500568549      0.77585209677787
  H   4.79246856134862     -0.74521107808314     -0.63492986832976
  H   4.73789699371382      0.98065753124370     -0.62216837669082
  H   -2.56817773858429     -3.45778084213482      1.09961217424540
  H   -0.96240148573175     -3.69656182079742      1.68502635838049
