33
Coordinates from ORCA-job ./opt_b97-3c_parallel
  N   5.63628880507215     -1.60775046789282     -0.48640654801650
  C   4.57792380785939     -1.14389933642666     -0.34220462047149
  C   3.28194995047911     -0.65589836397989     -0.15796012712258
  C   2.85480260838757      0.69321547865921     -0.09856585878759
  C   1.47733507088570      0.77504539774777      0.05561811457578
  C   0.85269091011257      1.99894036418580      0.48664417909893
  N   1.67539164361513      2.83982716063090      1.16674275036982
  C   -0.43912999175034      2.45046367503995      0.20893064136025
  C   -0.81820348430964      3.70346387036134      0.71934390366992
  N   -1.10252627165868      4.75042249532538      1.14747625052233
  C   -1.33439704794796      1.88688240482204     -0.79680629407106
  N   -1.80604208677769      2.75770734187660     -1.71141680900765
  N   -1.81831653055296      0.68222182414458     -0.87173267478081
  C   -1.58195743314982     -0.44218996888321     -0.22137998183873
  C   -2.55900502905446     -1.40813107534384      0.00765271673290
  C   -3.92953499395274     -1.33251435360137     -0.23354524369402
  N   -5.07971645692458     -1.33933201202953     -0.41275496336368
  C   -1.85986954083540     -2.58690412283234      0.44462696204999
  N   -2.44793964456093     -3.73846167811263      0.75968855207372
  N   -0.53742875335412     -2.41657342592472      0.49823353375090
  C   -0.29392368623011     -1.11116997421969      0.15747133918483
  C   0.97539481181049     -0.59585286258047      0.09802624856761
  C   2.15259747613368     -1.46648314211190      0.02923748344660
  N   2.11952463632399     -2.79673728024963      0.06540130175597
  H   3.52414817560141      1.53576961278583     -0.16351772158139
  H   2.44868538237771      2.44748856387139      1.67067562959917
  H   1.32138742416456      3.72043611220580      1.50141393282106
  H   -1.53606117889350      3.72373426449741     -1.69213168009503
  H   -2.59897679377928      2.48855481969729     -2.26769432175917
  H   -3.44751992668641     -3.83066667217115      0.73569636900479
  H   -1.89385612212044     -4.51924617494278      1.06160675733277
  H   1.23225647452364     -3.23788418013489      0.27735354946660
  H   2.96109169209044     -3.33142147351127     -0.05977144139589
