25
Coordinates from ORCA-job ./opt_b97-3c_parallel
  N   -0.86162984008182     -3.33146806642249      0.91447394381001
  C   -0.83085050267647     -2.18675730089095      0.16722391255498
  N   0.22340632849231     -2.18867723416433     -0.71971808700775
  C   1.18154034953945     -1.33048868816388     -0.75949729229886
  C   1.40926400785826     -0.10371284180435     -0.07636762016215
  C   2.68563365014328      0.46112874090383      0.00556984651448
  N   3.86292033037787     -0.14295056471102     -0.28588595566279
  C   2.57871203448981      1.84941172122451      0.39308198244157
  C   1.26549373999376      2.16072808187215      0.49036130237381
  C   0.47108256941754      0.97174394103733      0.22883478775909
  C   -0.89123272840707      1.03607860974444      0.15801757130541
  N   -1.52438784008504      2.27325764027824      0.11665503865480
  C   -2.79313719046705      2.00544893376537     -0.12359871103533
  C   -3.09791150632606      0.61337376949439     -0.19027586377606
  C   -1.91727837473872     -0.05581846287243      0.02056451250739
  N   -1.82578288740971     -1.36948902973400      0.30344207899382
  H   -0.36984803369314     -4.12263354364460      0.53739111356077
  H   -1.73918799712018     -3.52558145916619      1.36586292180040
  H   1.96690941853686     -1.59585669496025     -1.47282747313709
  H   3.92327506517585     -1.14412494134925     -0.26301284953741
  H   4.71710396262264      0.33927717452850     -0.07535642094449
  H   3.41761851490657      2.50734813538896      0.56538883232177
  H   0.82565651707212      3.10905092173922      0.74349463475342
  H   -3.50502117860371      2.81321038471567     -0.24161912229311
  H   -4.07116567991737      0.16289899479122     -0.29257461119661
