32
Coordinates from ORCA-job ./opt_b97-3c_parallel
  N   0.61077106882004      3.83380199387671      0.90177466454196
  C   0.28233653560273      2.61209927312692      0.34681424682231
  C   1.25568805170882      2.14161589664656     -0.61585310962410
  C   1.85672328123971      0.92035498981490     -0.67730232997392
  N   3.05769431501960      0.84553666604234     -1.40806227605689
  C   1.48034356470760     -0.31446468496422     -0.04227612484394
  C   2.38449577303442     -1.36723598104128      0.23795653446916
  N   3.74164664654664     -1.31054314405134      0.21037874110018
  C   1.68678224247274     -2.57651649367650      0.50713434736566
  C   0.34442014981149     -2.33216788618984      0.34882264661391
  N   -0.68657300997293     -3.17437174891631      0.52638246485836
  C   0.15901496138589     -0.88567396588230      0.05649713029193
  C   -1.09106770751010     -0.32949286334677     -0.04961220932793
  N   -2.21286853354647     -1.11677571536069     -0.29472090397046
  C   -3.25032425897073     -0.29242583447435     -0.28782986312371
  N   -4.51913148003423     -0.74038778702368     -0.49853753035372
  C   -2.88995118012371      1.05620621185402      0.01724996917712
  C   -1.52588754241952      1.07256558585066      0.17407861233997
  N   -0.87004528392674      2.14373552876345      0.69496230422853
  H   -0.00649647024728      4.12123140634121      1.64466664552964
  H   1.58754389769866      4.00245582648514      1.07116409752255
  H   1.70909772533637      2.93614394272731     -1.19999699498219
  H   3.13175586349247      0.01534964273559     -1.97722453030210
  H   3.24963998240411      1.67423313586259     -1.94852872788452
  H   4.17249030343426     -0.40404753158755      0.14506027767290
  H   4.25195964452290     -2.02065923874347      0.70295572401018
  H   2.14456435553574     -3.51617524435967      0.77530392847702
  H   -1.58980333390492     -2.83570337421459      0.19894173335379
  H   -0.51251568404750     -4.15778191568421      0.62113260506799
  H   -5.18908660192361     -0.07275987016762     -0.83689372625202
  H   -4.58917612548876     -1.65335000004449     -0.91597034066441
  H   -3.55407530835806      1.88851024420086      0.18284274861650
