31
Coordinates from ORCA-job ./opt_b97-3c_parallel
  N   4.66309786453829     -0.95828721622650      0.59208918932625
  C   3.51601631565420     -1.09000612380542      0.45683738990169
  C   2.13561939658698     -1.29664365211177      0.33313568131619
  C   1.48449646622367     -2.57296351647266      0.38536747700337
  N   0.18460806254404     -2.46154436361602      0.24522116326866
  C   -0.09290701412221     -1.09483068991723      0.12863995434469
  C   -1.39712972139091     -0.66676229574533     -0.05320451335576
  C   -2.49573658796472     -1.59673684203701     -0.50762824948860
  N   -2.24571054919163     -2.85824868157849     -0.83467965897685
  C   -3.67717489302108     -0.89099986650843     -0.57022680988220
  C   -3.39103901211080      0.41929429158874     -0.12674050627924
  N   -4.30047282263072      1.38629986251023      0.03763142921437
  C   -1.99905388972031      0.57878946154193      0.18726000745684
  C   -1.54396371140531      1.63536659873924      1.04380603577211
  C   -0.34725470988376      2.23040450832604      1.18371572467119
  C   0.80077311126384      2.17462252070559      0.28635425214986
  N   1.31574932849556      3.40487261741864      0.01102522202034
  C   1.39655815326239      1.04156856546002     -0.21549322036707
  C   2.42614300260447      1.24803476037598     -1.16069333295547
  N   3.23900833504778      1.50384426369345     -1.95410893298168
  C   1.13363979075925     -0.33965155505588      0.16484921858011
  H   1.96902379147908     -3.52694218060608      0.52966429263862
  H   -1.33198336033311     -3.21625059401676     -0.53549375672347
  H   -2.99994022407495     -3.48651919290502     -1.04937412034702
  H   -4.63180570535209     -1.25420378018480     -0.91329981087321
  H   -4.01181604653707      2.33167799182706      0.21187284917126
  H   -5.26236569184836      1.23811622200618     -0.20543871084612
  H   -2.30117037024261      1.99113198598841      1.74245420015966
  H   -0.25952367703478      2.97809747296204      1.96427085596240
  H   2.04986118924981      3.48283424318984     -0.67464253342962
  H   0.71547500155525      4.20373159945848      0.10602222774910
