29
Coordinates from ORCA-job ./opt_b97-3c_parallel
  N   -4.45668167559080      0.85254352528983      0.17777061422719
  C   -3.22304893679943      0.31749622148825      0.13097805757205
  N   -3.01790521332092     -0.97196723476051      0.48793732029088
  C   -1.69531460172495     -1.15925009437053      0.31826632819349
  C   -1.16829041842210     -2.42965421159623      0.48211933910660
  C   0.05186266592910     -3.00137429173267      0.14139405130134
  C   1.29854623304025     -2.58562244894910     -0.26977806462017
  C   1.99110191518354     -1.35044026650245     -0.28076653091055
  N   3.33385073753147     -1.50527269660132     -0.52651532282278
  C   1.54145140427118     -0.03779942172369     -0.03938044065961
  C   2.41198846841243      1.07029668973091      0.07568957677496
  N   3.78252584421607      1.07540774922514      0.26169139282819
  N   1.80230140745239      2.26593733292526     -0.05737469435413
  C   0.50676557396628      2.00888414483963     -0.26364873874039
  N   -0.37808699654245      2.99198224370752     -0.46512666939351
  C   0.20354234590662      0.58748425476715     -0.19468531175916
  C   -1.09865988964007      0.15446574306128     -0.10246485626088
  N   -2.15057094155769      1.02728011071372     -0.24090111351833
  H   -4.61785951648669      1.71574855083730     -0.30759449698258
  H   -5.22804111887003      0.21724199712055      0.27214353912256
  H   -1.92081745776931     -3.13717412552474      0.80600683571477
  H   -0.00215855453851     -4.08581258443012      0.17976230550890
  H   1.94263979399203     -3.41847793659647     -0.53169910213101
  H   3.63867856566013     -2.40670327015280     -0.84499134698148
  H   3.85155693603484     -0.72066226920196     -0.88787556616379
  H   4.12325454654779      0.39640249617174      0.92450887031443
  H   4.11022419969206      2.00627316224361      0.47079878867634
  H   -1.35558963254049      2.71082293279794     -0.41740130589789
  H   -0.08627347833531      3.92821048452055     -0.24475836853399
