28
Coordinates from ORCA-job ./opt_b97-3c_parallel
  N   4.61424266986103     -1.44734292220418     -0.23916174638408
  C   3.58936724298499     -0.89484320773745     -0.19574954605209
  C   2.41667604927868     -0.14280092599824     -0.18946228269660
  C   2.37880314176810      1.27495286245014     -0.45741763082201
  N   3.44214199191386      1.95044105897720     -0.89966415320276
  C   1.09542134665994      1.77304383845142     -0.22166133771852
  C   0.25262120824720      0.69519101751728      0.09449982391612
  C   -1.12657861120820      0.70822137612849      0.18176766236287
  C   -1.93714081591995      1.90575440514329      0.31136394471651
  N   -1.47675408238634      3.16632058751086      0.57243151166788
  N   -3.23461756744290      1.66442245951297      0.16564216411780
  C   -3.33314251524660      0.33331668308021     -0.11862012916518
  C   -2.11837974424403     -0.33054202835514     -0.08202069959806
  C   -1.96254250203703     -1.71844996753569     -0.41720657171837
  N   -2.81203296323221     -2.21186833126654     -1.34762250419960
  N   -1.20857391927646     -2.60552406464855      0.18843713974767
  C   -0.15602425365383     -2.43272435015845      0.96364838222455
  N   0.89363215733150     -1.66955376188484      0.83436021833995
  C   1.14276309070541     -0.53225218272936      0.21651206013872
  H   4.32251486769259      1.48357776170474     -1.03248030627936
  H   3.41971597444257      2.94763396973063     -1.00389182334302
  H   0.76822687694299      2.76036743384359     -0.50071363056539
  H   -2.20208035332722      3.79028279124243      0.88973331054682
  H   -0.62935027747779      3.22435846374577      1.11378770031066
  H   -4.30272045418081     -0.11204083187613     -0.28692071189466
  H   -3.28687665637658     -1.59447096930271     -1.97734799515368
  H   -2.77449272328226     -3.19304771003551     -1.55991112335933
  H   -0.07181419973772     -3.16161268460140      1.76765145335959
