25
Coordinates from ORCA-job ./opt_b97-3c_parallel
  N   4.51737409426099      1.57707343968423      0.76465999012379
  C   3.60421718049951      0.89150292396106      0.54822741417697
  C   2.49275132861712      0.07792986621700      0.30120509790998
  C   2.45722406910724     -1.30018939495846      0.23226493270352
  C   1.16160210540680     -1.76457161723149     -0.13012365358070
  C   0.83885225191144     -3.12423946690605     -0.19152539996347
  N   0.59459691544780     -4.26019759300981     -0.24785787440911
  C   0.29674532008844     -0.66194318742643     -0.25245616423812
  C   -1.09470899664548     -0.64277748071363     -0.25484214741043
  C   -1.93165706276628     -1.80033071893256     -0.31678178085952
  N   -3.20287813396559     -1.53189958992379     -0.04002561589240
  C   -3.25944380462724     -0.20893793205732      0.27241082601958
  C   -2.02656481780117      0.42095095600242      0.14473127739430
  C   -1.85861718953731      1.82058450886571      0.32412896991770
  N   -2.57449997980729      2.44396126673993      1.26503185975491
  N   -1.19421990463797      2.61332611538397     -0.52438291674418
  C   -0.02320936609555      2.43092249558741     -1.03514876515380
  N   1.01406417883240      1.75526030090556     -0.54379863944656
  C   1.20398242436214      0.55527596180921     -0.13072145521919
  H   3.29417615611774     -1.95177887041984      0.42667277555522
  H   -1.61652286436880     -2.80264590521518     -0.55131587722697
  H   -4.20654215610971      0.26176572696481      0.49229066050876
  H   -2.62232096923866      3.44819209626832      1.27374543815439
  H   -3.10733404383001      1.92273646921776      1.93648495085808
  H   0.22059241417898      3.03845677519001     -1.90272604063322
