30
Coordinates from ORCA-job ./opt_b97-3c_parallel
  N   4.84447695339528      2.61883779191937      0.50637805695843
  C   3.86353070081436      2.01450331217114      0.34666468390142
  C   2.73266337202409      1.20834108695811      0.15996782370322
  C   1.42181204712425      1.59679595286095      0.02765639925094
  C   0.60148009502666      0.43049226029774     -0.06258475947145
  C   -0.77458390997510      0.56667762617307     -0.16892736908812
  N   -1.30777394385697      1.79211835486132     -0.46083593147919
  C   -2.62400531445653      1.67500819970754     -0.36020522140883
  N   -3.46239129753847      2.68397532322414     -0.60552066831688
  C   -3.03043648127612      0.34588233722643      0.03311727136491
  C   -4.34645638793995     -0.05439189932903      0.25639197571455
  N   -5.46396485666484     -0.33427801752238      0.43002607275138
  C   -1.86274173284992     -0.40332330115473      0.15132953257385
  C   -1.84467644917055     -1.70029326213430      0.68874524114617
  C   -0.89147265990772     -2.68881559865765      0.69414546880914
  N   0.23470986044283     -2.86430195003444      0.01343869774646
  C   1.19089395807527     -2.09109931785999     -0.39862518894721
  N   2.12079637182827     -2.71038183208511     -1.19938523106072
  C   1.49363296891187     -0.72705020335459     -0.04076034632866
  C   2.79300160011604     -0.23863163892501      0.07695768469237
  N   3.97732591674325     -0.91019574130667      0.05080567120264
  H   1.04217227713029      2.60141455816968      0.05614738174798
  H   -4.45605666113595      2.56419161134549     -0.53493565358842
  H   -3.09442302239025      3.57766396307130     -0.87690786096695
  H   -2.77181966061371     -1.99016184149043      1.16931907933558
  H   -1.16985123186863     -3.57328377199084      1.26215145501218
  H   1.86415621435660     -3.63178583549903     -1.51380817148307
  H   2.62638181739432     -2.14228895386618     -1.85740983338464
  H   3.95690655139268     -1.89920512384213      0.22907852341853
  H   4.78188838526877     -0.42708187073418      0.41426123529437
