25
Coordinates from ORCA-job ./opt_b97-3c_parallel
  N   3.39735491790194     -1.99244426617650     -1.42085219395891
  C   2.46224518550311     -1.65198282953034     -0.82260915622980
  C   1.29123189337073     -1.24912143815216     -0.12595897639452
  C   0.39380828626728     -2.24467014859108      0.13355937123685
  N   -0.68882293538658     -2.26215723477684      0.93982500136181
  C   -1.76904748308286     -1.58394988417174      0.91596562594818
  C   -2.13934752446329     -0.46938222986301      0.09118124555777
  C   -3.45998507210877     -0.06434840972774     -0.13450396918375
  N   -4.59539003664906     -0.73396039379130      0.04599171790009
  N   -3.55997394887084      1.25949055918408     -0.60162914681022
  C   -2.34601933688600      1.71277079826155     -0.59470512645277
  C   -1.35972245832476      0.69519257137087     -0.19059298355923
  C   -0.03248160373372      1.00799568797617     -0.04403497100779
  N   0.33045593432370      2.36531386522678     -0.03829708894583
  C   1.60906578566823      2.39833560882635      0.19101260482252
  C   2.18894977546331      1.06687117050441      0.29717946679463
  C   3.54639429127770      0.81394928908856      0.53081777259948
  N   4.67649998898212      0.67326725099615      0.76266509792719
  C   1.15018316069616      0.16868574545196      0.14004353726048
  H   0.64276394156486     -3.22940750190243     -0.24897550627380
  H   -2.50060326143383     -1.86710454453637      1.67581283706952
  H   -5.46584345426704     -0.27204350212326     -0.15074042148374
  H   -4.61098690604994     -1.70473588009235      0.29805504678884
  H   -2.09451091499782      2.71748940349282     -0.89431562757811
  H   2.15682684713559      3.32464480625559      0.28600746731110
