31
Coordinates from ORCA-job ./opt_b97-3c_parallel
  N   3.42531971147784      3.88384629706138     -0.74484394674939
  C   2.62337419748433      3.12125614315021     -0.38212023765944
  C   1.67610595596655      2.15847989758348      0.01648123293663
  C   0.79499374793950      2.54937825918265      1.07018412937978
  N   -0.45199761350944      2.29177897600423      1.22822462703285
  C   -1.37134008232627      1.59767579746193      0.56406286825270
  N   -2.57884993155588      2.11721441525223      0.37218434736515
  C   -3.35651000615563      1.09007655855780     -0.07142061567818
  N   -4.61941323622290      1.30712422202960     -0.41446303693946
  C   -2.66991320497221     -0.15427243915163     -0.12402171534966
  C   -3.24070650073923     -1.33617388685709     -0.58988038998134
  N   -3.77898092759944     -2.29311959612556     -0.98021778955248
  C   -1.33167048689417      0.14696199697194      0.19850775060001
  C   -0.21923967131777     -0.67592723122645      0.17861227058811
  C   -0.32343907089272     -2.09296543277757      0.29011732991257
  C   0.94318906759524     -2.63136285495241      0.27082094734169
  C   1.33133437759914     -3.96198804478634      0.47115326013542
  N   1.73730427256003     -5.04059182639702      0.62859209296826
  C   1.88995965818262     -1.55985515521330      0.05854550668917
  N   3.22972419356831     -1.79471153631964     -0.10851127906165
  C   1.19597351481381     -0.34857753865902      0.00130006505097
  C   1.81952577717866      0.85936872510759     -0.50035139462464
  N   2.74657145408341      0.67511357172331     -1.46058297403815
  H   1.21823070235026      3.22364956558567      1.81254617359394
  H   -5.21303813058434      0.55654109339940     -0.72060246239167
  H   -4.98858608582363      2.24021290499867     -0.36756398946190
  H   -1.23390715340783     -2.63857261741881      0.46239285481772
  H   3.85919411501232     -1.07127425085619      0.19736947368624
  H   3.53943924573953     -2.71779320620844      0.15249524505216
  H   3.30640377496217      1.44001819477701     -1.79824947869185
  H   2.92482175989290     -0.24123396499277     -1.82879587932353
