26
Coordinates from ORCA-job ./opt_b97-3c_parallel
  N   2.86681226753370     -2.62930961900704      0.98873476215921
  C   1.91866585631624     -2.11264317743264      0.56071340110284
  C   0.71061701000770     -1.52912019717911      0.09283776597741
  C   -0.32656777151402     -2.45823711513271     -0.03945578674218
  N   -1.44494814802486     -2.41351316487119     -0.71865624995322
  C   -2.38704465761111     -1.56747720506452     -0.98205066551148
  C   -2.68032253768083     -0.35892181883841     -0.33181717723343
  C   -3.96157002963788      0.17049111213694     -0.21928092657785
  N   -3.97648764114849      1.35754288564003      0.44875877218107
  C   -2.70462171174083      1.65431178924955      0.70379382447627
  C   -1.79722668512608      0.64908180380057      0.26194303543352
  C   -0.42471075007017      0.85924219776476      0.13222078572099
  C   0.15724255461383      2.13096389777058      0.21252251635698
  C   1.51864508030079      2.03041117117839     -0.03769018128913
  N   2.42020136596707      3.00490121958235     -0.13371798818043
  C   1.85902453408400      0.63097173362146     -0.23448901995871
  C   3.17031438854091      0.25275117416791     -0.53230505353560
  N   4.28884883708441      0.09913571131290     -0.81563715774128
  C   0.70540512101298     -0.12489459086553     -0.11150272231190
  H   -0.11971334950269     -3.43632084225411      0.38573995286157
  H   -3.09468251448695     -1.90019499831273     -1.73851349405038
  H   -4.87930955744533     -0.28249420853994     -0.56324555043300
  H   -2.44387979140822      2.56865762415418      1.21493369047838
  H   -0.38306097554484      3.05515178694020      0.31725471204875
  H   3.38021207388237      2.79458906525370     -0.35046673064890
  H   2.17232386959872      3.96558942452435      0.01574154347086
