30
Coordinates from ORCA-job ./opt_b97-3c_parallel
  N   -5.07492885072794     -0.93276913770928      0.04226244904007
  C   -4.11087961133966     -0.28741973725440      0.12802404329076
  C   -2.96570388529276      0.50613433515434      0.23641380175903
  C   -2.90955747456222      1.89533526520273      0.62540100114984
  N   -1.71479640971247      2.41785581709228      0.51886203834562
  C   -0.87535378073788      1.37454941235453      0.12360292429604
  C   0.46498015666670      1.58996190692371     -0.03852275933575
  C   0.97027591841434      2.94702528253587     -0.22960096675415
  C   2.28448663891672      2.88336041353513     -0.52042659056702
  C   2.70638471406943      1.49668486317614     -0.41073204359386
  N   3.98996611089419      1.12862180956257     -0.55972780729614
  C   1.59454049996500      0.68984728869580     -0.11603338503120
  C   1.69924088918753     -0.65367135711073      0.39622250664492
  N   2.87263692047618     -0.91359498126321      1.07786889635806
  C   0.80710669803941     -1.69175420359787      0.21699672857858
  C   1.08835565302752     -2.92152789404538      0.83759691457033
  N   1.35531509860977     -3.93654688131382      1.34549634016935
  C   -0.30850391110260     -1.71480577622132     -0.75196067385443
  N   -0.24017826964528     -2.71359020093888     -1.66776043482066
  N   -1.35447538300695     -0.96402904798024     -0.78891706541271
  C   -1.66787852459592      0.14996734653487     -0.11185093602141
  H   -3.75497443461080      2.47923134308650      0.96194659660345
  H   0.33082435804824      3.81183306425456     -0.21745890740410
  H   2.93606257776240      3.70037387251460     -0.79066758955749
  H   4.24835749604651      0.15840317887457     -0.50991105996287
  H   4.67161050959436      1.78493884630078     -0.89110738240801
  H   2.93787684934781     -1.81659664458147      1.52280861040162
  H   3.20581827112110     -0.16323974755349      1.66091455307285
  H   -1.08683630560338     -2.94019494344727     -2.16192572266791
  H   0.43922171965192     -3.44431896428226     -1.55884438419283
