31
Coordinates from ORCA-job ./opt_b97-3c_parallel
  N   -4.70658499173551      1.35870790857272      0.52083274504402
  C   -3.69540601362608      0.80323548089438      0.34526818287870
  C   -2.52168000991714      0.08887131844674      0.12521736991242
  C   -2.48511323547983     -1.23614616415121     -0.35822277553030
  N   -3.56861174182990     -1.99043556099161     -0.61914784898815
  C   -1.14021092669760     -1.63332994126552     -0.50437587993310
  C   -0.29433897431957     -0.58252480093204     -0.15105514267537
  C   1.09796346818037     -0.73115797885490      0.01242760084282
  C   1.69111666983551     -2.00164268516751      0.24943831603181
  N   1.04741255830748     -3.21061324153660      0.47687268198307
  C   3.08725551309805     -1.86827301061363      0.24804009590385
  C   3.41078999273497     -0.55164452035226     -0.02908230964332
  C   2.23286359501735      0.21745996627360     -0.14428113214695
  C   2.31350834120726      1.59176691824285     -0.40881220539284
  N   3.46225517197271      2.04421331031354     -1.00846203766563
  C   1.43385384592618      2.64868416563173     -0.05237999904006
  C   0.16474847844877      2.73365925229528      0.44562819360204
  C   -0.93283086271929      1.87100426610583      0.57476114293841
  C   -1.18205535777548      0.57237205939920      0.20679963466873
  H   -3.46995160763450     -2.83935507567412     -1.14431720671761
  H   -4.47590869062644     -1.55703013160749     -0.62989596574519
  H   -0.82562058282078     -2.58040503410489     -0.90755673108780
  H   1.60214894415369     -3.84178453202665      1.03481562223800
  H   0.12171180518781     -3.10787595287183      0.86895110874025
  H   3.78748209788080     -2.66034652965791      0.46941135233118
  H   4.41655120394873     -0.16303812743119     -0.01064644817964
  H   4.17624248167614      1.38603527783713     -1.25505515119840
  H   3.76979225457757      2.98513101026707     -0.83954739776674
  H   1.89767119024779      3.62286178478396     -0.17321218947397
  H   -0.09750039648881      3.75141031908775      0.71481096276489
  H   -1.82330028993046      2.38867614868794      0.91450346210491
