30
Coordinates from ORCA-job ./opt_b97-3c_parallel
  N   3.88453230203179      1.87436960412074     -0.67064752804623
  C   2.74060232062087      1.80937640233285     -0.46241896204223
  C   1.37106245295120      1.75776738680365     -0.17474629285431
  C   0.52127979543912      2.83429029842041     -0.33579730624508
  C   -0.81777537592010      2.39875696528555     -0.26828260891768
  C   -0.87100068163309      1.02090699297244     -0.17117145199615
  C   -2.11395139815930      0.35086472603453      0.08900716387961
  C   -3.07711675483852      1.14812395984393      0.74421776834029
  N   -3.91008461888347      1.76297294701042      1.27968850442736
  C   -2.60193650873287     -0.87193307259393     -0.41170498636020
  N   -3.94224495485800     -1.08799227497088     -0.33341369010876
  C   -1.89579766018905     -1.91795679563014     -1.07079870747358
  C   -0.62063373727070     -2.38544968132089     -0.95063697922266
  C   0.53125640714512     -1.99788605171140     -0.24941313024474
  C   1.59983590831804     -2.87318405006223     -0.09296006690653
  C   2.66936540685457     -2.27692256388065      0.60514737899961
  C   2.33818032490826     -0.96265202027813      0.85552901581400
  N   2.97810724585279     -0.11042359555816      1.68870280095419
  C   1.01933284637839     -0.69250953585314      0.23802854041121
  C   0.54505529873928      0.55250334442897     -0.04783829052135
  H   0.84278095023566      3.84114200990242     -0.55194314594277
  H   -1.68025456035215      3.04372289166385     -0.29861214326278
  H   -4.29489755924873     -2.02020575637726     -0.44255633956932
  H   -4.53579017958593     -0.43331669610028      0.14698738517556
  H   -2.54705116433213     -2.55641472627172     -1.65608265428211
  H   -0.47818526779953     -3.33343307617053     -1.46120296487792
  H   1.59933953931959     -3.88764207031367     -0.46426630138080
  H   3.56197163575761     -2.77837020173702      0.94330775399744
  H   2.71986119694778      0.85975355769918      1.66991079090415
  H   3.95997136930325     -0.26338635468984      1.84272043585176
