32
Coordinates from ORCA-job ./opt_b97-3c_parallel
  N   3.04496390637399      3.43556815063774      0.08671609257810
  C   2.40066048425077      2.46688815700234      0.11552005943757
  C   1.73654817341483      1.21891001468930      0.09676066955469
  C   2.62079856746442      0.07936413688712     -0.10994283886093
  N   3.72840542499598      0.31963143158551     -0.85371123129969
  N   2.53998046333789     -1.09672752185157      0.43041559608014
  C   1.56905105973925     -1.88267104131959      0.87590605348281
  N   1.92860765599703     -2.68339468749007      1.91083783861472
  C   0.31905656734575     -2.08380085811295      0.26353903399751
  C   -0.26025593303170     -3.34617139436432      0.10317812799495
  C   -1.38073453508217     -3.25529179406525     -0.72668959174420
  C   -1.57726000570476     -1.91499436365326     -1.06243095564156
  N   -2.47991971589940     -1.46127913148335     -1.98490997156214
  C   -0.56472373210725     -1.12174171712115     -0.40896900860251
  C   -0.69580014713082      0.22888303103440     -0.09996231626726
  C   -1.89592996110471      0.97615989905971     -0.03925734697101
  C   -3.22121363009415      0.55214110325650     -0.02403279535161
  N   -4.35738632537905      0.28672675109264     -0.00557634409246
  C   -1.52941734896498      2.29555623819655      0.38007108480988
  N   -2.38198359229910      3.29094832459391      0.62797730196550
  N   -0.21334042089687      2.44663395878206      0.53355780930119
  C   0.35792703066197      1.25340622434334      0.25069451778811
  H   3.98512902166144      1.26656129182762     -1.07279612950364
  H   4.47004757433147     -0.35576344910564     -0.79971014887706
  H   1.28301575498457     -3.36852659468212      2.25495948774654
  H   2.90645981613766     -2.81246500069166      2.10229630024393
  H   0.16528037660616     -4.27317630374236      0.45700337670153
  H   -1.95543324029847     -4.08564202895230     -1.10601606306128
  H   -3.37253984100454     -1.92611951617305     -2.00102257617593
  H   -2.58051223113805     -0.46531888798197     -2.06307158546530
  H   -3.37377093600487      3.13694863641219      0.60306276270200
  H   -2.02985397156254      4.14033266728967      1.03195230897790
