28
Coordinates from ORCA-job ./opt_b97-3c_parallel
  N   3.10372199620281     -2.14415249959313      1.00793607053787
  C   2.55766833992162     -1.18778099523695      0.61617890590489
  C   1.95727505270862     -0.03960622668567      0.11980822506524
  C   2.62212682645971      1.21064058635972      0.12412294646002
  N   3.90837529337902      1.39130219694656      0.43867499910134
  C   1.71359669771705      2.23639628495456     -0.25357162751834
  C   0.47747418417013      1.67571927294337     -0.45629534593836
  N   -0.52784069636982      2.32443856227641     -1.08845709305648
  C   -1.78235120727223      2.33555258738726     -0.80578112463764
  N   -2.43434228809747      1.91037969256871      0.29478683851283
  C   -2.49065987175330      0.67735573467718      0.68507652750673
  N   -3.29167800543973      0.39253643986085      1.74951893974801
  C   -1.86920541247376     -0.47385956260108      0.04499511537491
  C   -2.46406590856823     -1.71717092627940     -0.06607678710825
  N   -1.61237848474480     -2.70727767825008     -0.45880514242674
  C   -0.40979134514572     -2.15057585604469     -0.51485329246663
  N   0.63573911980583     -2.83371480648817     -1.01823141028961
  C   -0.46439614492646     -0.69258746486050     -0.21580441282506
  C   0.57961686685354      0.20170837326376     -0.17995232772003
  H   4.28484455135934      2.31287455181621      0.55828329695339
  H   4.47332619090576      0.61516617528980      0.73772548987131
  H   1.96956828403138      3.26340040708425     -0.45496239049253
  H   -2.40678745328057      2.88380693407274     -1.51042088397828
  H   -3.10726567907723     -0.44075236765807      2.27677582945477
  H   -3.68273853389313      1.17477807007391      2.24676892059174
  H   -3.49950377076982     -1.94712957180635      0.14061090362905
  H   0.45179391839120     -3.81030382365652     -1.18048416538223
  H   1.57422822220630     -2.61784171851480     -0.72704528667196
