29
Coordinates from ORCA-job ./opt_b97-3c_parallel
  N   4.31171993059340      2.02281239160703      0.55706810907065
  C   3.25210572072038      1.57396671909091      0.37793607073551
  C   1.94632388505730      1.07439291616292      0.14755878286005
  C   1.89580169192439     -0.32945639511472      0.10859143830171
  C   0.95280818020039     -1.31181059755001     -0.01974302817678
  C   1.36283897410766     -2.69590292156524     -0.07516586092041
  N   2.63917824168509     -3.18004708516766     -0.10823087216600
  N   0.32542309067564     -3.53638960468463     -0.04533392456005
  C   -0.78038367764616     -2.75842433577403      0.02286975312030
  C   -0.51501027727635     -1.38893288892643      0.02148250909474
  C   -1.52434156262511     -0.41249624665632      0.06854936857769
  C   -2.87448403899543     -0.66754615390591      0.19983267388842
  C   -3.54193635745733      0.56768079764229      0.00966231489112
  N   -4.86699438519757      0.76659594516870      0.02275217351033
  N   -2.70923953871690      1.59720509734752     -0.21428497425500
  C   -1.45071994063455      1.08155872988554     -0.15438871625003
  C   -0.43310627371333      1.99823974435194     -0.28304076243984
  C   0.96468810606335      2.07536305219171     -0.10409355372688
  N   1.43710676306991      3.34630801959149     -0.19581714968606
  H   2.89423294558188     -0.73655718950060      0.22876309249117
  H   3.32556043844849     -2.65758125228040     -0.62342373240405
  H   2.68121929862500     -4.17106979836603     -0.28074310386807
  H   -1.75387241185626     -3.22316601592090      0.03671391135106
  H   -3.34365923428696     -1.62085076604752      0.37371613259815
  H   -5.20904737008583      1.70925363732438     -0.03502215388403
  H   -5.49643117057664      0.04920055400880      0.32823178811482
  H   -0.86978457425868      2.97030136581062     -0.48439422676814
  H   2.40494944573308      3.55571506430040     -0.02435727849235
  H   0.79873151964113      4.11737620967565     -0.23706078230774
