27
Coordinates from ORCA-job ./opt_b97-3c_parallel
  N   1.38062404733143     -5.10668088732882     -0.05291207156407
  C   1.16500836938138     -3.96668649572824      0.00077904155417
  C   0.91001599193021     -2.56954205009788      0.06461227106400
  C   2.01709665143625     -1.79969226748650      0.49778730763085
  N   2.30232617468078     -0.54502298471344      0.36178250476973
  C   1.73594696586097      0.60423077012647      0.11121243939233
  C   2.45628300812240      1.75924525340930     -0.23460446844431
  C   3.82919764683255      1.84318018086435     -0.48590599326212
  N   4.96758936738496      1.93284326443254     -0.70136126471152
  C   1.55145910569968      2.84732968862165     -0.11467138428174
  N   0.32421295068208      2.48668567397431      0.21218892184410
  C   0.31284940483348      1.10292720731681      0.25398569870579
  C   -0.85831912872780      0.41626177423729      0.16059482295509
  C   -2.14906122088147      1.10233543138233      0.13523007538932
  N   -2.33325880661245      2.40312115670603      0.30124271660466
  C   -3.15415196040056      0.13842978452515     -0.08499081411663
  C   -4.51868592011266      0.44315339433276     -0.15309555340009
  N   -5.63617731335374      0.76091712475124     -0.20241113377560
  C   -2.54258914749866     -1.11574729821962     -0.23389890526309
  C   -1.15883819488602     -1.02898041256696     -0.07771110056635
  C   -0.41102449684556     -2.19283126670605     -0.18251717799124
  H   2.80967565125763     -2.37883820758660      0.96584837092563
  H   1.81180082905188      3.88876115007272     -0.23871447014747
  H   -1.49669190298878      2.98253431105806      0.34960294218652
  H   -3.25351531207988      2.80206291526106      0.22119411090628
  H   -3.07641638462652     -2.02966060394936     -0.43876175256575
  H   -1.03506022097137     -3.04354039468957     -0.43029121853821
