29
Coordinates from ORCA-job ./opt_b97-3c_parallel
  N   -3.28068807538705      2.67394935130183      0.26441335745193
  C   -2.69335090853529      1.67274217941171      0.14017937985464
  C   -2.12436146695252      0.41233896674566     -0.00872426402782
  C   -2.94311741480532     -0.74834729041408     -0.03742486464828
  N   -4.28109310894665     -0.72297236603091     -0.00442172311551
  C   -2.12706383683391     -1.89075886308833     -0.10091781006798
  C   -0.79061979158215     -1.50798110747423     -0.08716968584509
  C   0.21292639464412     -2.46164457386979     -0.25002263694265
  C   1.59981898298857     -2.48028205249816     -0.10016431909258
  N   2.23209501224068     -3.61344402929367     -0.54621208707487
  N   2.45790925479084     -1.67761528168592      0.55480451130502
  C   2.50824952153021     -0.38503923013258      0.66742909898350
  C   1.74859241822049      0.67588845812258      0.15702203711438
  C   2.28362466136943      1.97589725818301      0.07920049148460
  N   3.55777184517380      2.38575991494736      0.32437558148393
  N   1.35111741434259      2.91144963172671     -0.27816211601368
  C   0.20296471040975      2.26223090583641     -0.37689215392942
  C   0.32253403489742      0.85495017259089     -0.13534368280268
  C   -0.76316027478846      0.00293350875355     -0.05172271143437
  H   -4.76331416161695      0.14891786840035      0.13365117850874
  H   -4.80989829056657     -1.56809449612588      0.10044894237045
  H   -2.48037858085043     -2.90853560499663     -0.14938955075739
  H   -0.18672399141871     -3.43579316830298     -0.51343405912583
  H   3.23522262333576     -3.60729710465628     -0.49091632069863
  H   1.81849564804351     -4.14681759271907     -1.28871915869327
  H   3.36763381178015     -0.06090591367315      1.25745141479549
  H   3.74463709142883      3.33652796621150      0.05381827202077
  H   4.30935608619941      1.74503893137823      0.14683807050811
  H   -0.69487916120373      2.78551627758925     -0.65952232544815
