32
Coordinates from ORCA-job ./opt_b97-3c_parallel
  N   -5.54712573272004     -1.41633966605380      0.95045365990676
  C   -4.49710932297465     -1.00532691899813      0.66888470094424
  C   -3.23987953234151     -0.48635385289098      0.31826443145298
  C   -3.01291066133497      0.82690545203298     -0.19769386304456
  C   -1.65377394330471      1.03328619281602     -0.33064114997252
  C   -1.14689885200139      2.22689031975633     -0.97399493141531
  N   -2.00349388041657      2.77159180010174     -1.88933122608700
  C   -0.02513811842329      2.95208358231307     -0.64935690230454
  C   0.95019603768747      2.67539108486448      0.34545286085578
  N   1.39783638912775      3.73504186942899      1.06545718601975
  N   1.62711062778875      1.56755877183860      0.53878154353870
  C   1.54840612142311      0.31934325033717      0.16757600050440
  C   2.69957982012567     -0.48802506372990      0.05951072365655
  C   4.02756477179910     -0.07948950755289      0.17516987046034
  N   5.15384796916331      0.20235295175678      0.26322059696119
  C   2.28343102925099     -1.83185501027349     -0.10064583366195
  N   3.08478545127163     -2.87794725266845     -0.25132215937898
  C   0.85676290267164     -1.88936407792733     -0.08939536205583
  C   0.18721505512427     -3.09412533147937     -0.30284998671347
  N   -0.27093174206085     -4.15011782338121     -0.48338255647125
  C   0.35114848357196     -0.58132632844597      0.02727796441759
  C   -0.99002146050448     -0.21397252393197      0.07583608787884
  C   -2.01849778585811     -1.12511396023683      0.43973921461649
  H   -3.78851758959157      1.54638047419322     -0.40047041988581
  H   -2.64949329899472      2.15701221484049     -2.34952972009514
  H   -1.69832318654360      3.56300661782087     -2.42703981249623
  H   0.08018538740755      3.92204994918345     -1.12158269166269
  H   2.15761488921938      3.58178037503742      1.70624202208036
  H   0.80406362802987      4.52948542876569      1.21298506188160
  H   2.70710560740882     -3.80578118726276     -0.34349016027628
  H   4.08331189354096     -2.76341753070273     -0.27140928202716
  H   -1.86986913344243     -2.11956997715147      0.81982442407310
