25
Coordinates from ORCA-job ./opt_b97-3c_parallel
  N   -4.95206711226886     -1.28357689835872     -0.50354360651817
  C   -3.85496399800173     -0.92939258116652     -0.36050209900349
  C   -2.53312814625859     -0.48323358325844     -0.18371042356393
  C   -2.13446255442672      0.87221560170286     -0.16215289437064
  C   -0.74810077897370      0.93910353320105     -0.02571725476052
  C   -0.10405351423677      2.19305898060029      0.13355122830095
  N   -0.92164139442878      3.23855383581076      0.44364721100637
  C   1.23376523274578      2.58627474154549     -0.10370991356761
  C   2.42962461456529      1.96728508300278     -0.37198634149461
  C   2.92797334584389      0.66461011705824     -0.34770517208502
  C   2.38542391061191     -0.56111864080802     -0.03817397046596
  N   3.22035800960862     -1.63298818053015      0.05348348760149
  C   2.40715443195751     -2.64877005304590      0.34642492347355
  N   1.08792995138770     -2.38088133564268      0.43113978744923
  C   0.99518757836837     -1.05818134513129      0.19695658658700
  C   -0.26676016743974     -0.46479366098410      0.04818383752406
  C   -1.40621001316894     -1.28596405516629     -0.02589323908656
  H   -2.81001844555418      1.69564155779637     -0.31900936615098
  H   -1.80477155345933      3.05990510883739      0.88284619241685
  H   -0.52488589717841      4.14505482329581      0.60740176524775
  H   1.33885481300910      3.66647043240199     -0.08688109918840
  H   3.21103092208565      2.68886538653970     -0.58332648829862
  H   3.98980873952008      0.59291440750587     -0.54843932256350
  H   2.78522618575962     -3.64684647113558      0.51758925610040
  H   -1.37959989306765     -2.35952614857119     -0.00077456128989
