28
Coordinates from ORCA-job ./opt_b97-3c_parallel
  N   4.17306451356368      0.91717613968208      1.29586342865054
  C   3.15812228045646      0.67702504127944      0.78015930078947
  C   1.88586838178506      0.54775455845530      0.17163922559888
  C   1.24444452125285      1.76435931291742     -0.13038643496413
  N   1.95680665257758      2.89984039767239      0.07849236126139
  C   -0.01612961261718      2.01245900830693     -0.76216122248440
  C   -1.25765074193868      1.45591392588435     -0.63335640277877
  N   -2.32357648936249      2.18694305783519     -1.14656178331527
  C   -1.66002786160402      0.23260354656885      0.00832046355172
  C   -2.93996449967459     -0.03193149958934      0.51099421153468
  N   -3.97613382684769      0.79600145497230      0.74530800444574
  N   -3.14562803479528     -1.38925722725358      0.77751448806624
  C   -2.05465286824741     -1.99192452999144      0.39949618020749
  C   -1.03398996681570     -1.05737865904378     -0.06063896862490
  C   0.23964953458898     -1.48311814149279     -0.33838954687301
  N   0.51473438767802     -2.82312062421152     -0.51706112092272
  C   1.82997995509264     -2.87821424205254     -0.49964612777840
  N   2.49966598537607     -1.70201582892217     -0.28100181189915
  C   1.54546321243659     -0.77894688557471     -0.21544972510936
  H   1.48525680365527      3.78408326850221      0.09455798431051
  H   2.87428937131076      2.85739154301762      0.49068717758177
  H   0.00069453427575      2.93278816483764     -1.33789628123508
  H   -3.06010065545334      1.63758654114968     -1.56000429012890
  H   -2.07396532826195      2.98143610996814     -1.71224231470240
  H   -4.74221359423189      0.42039716103036      1.27616043397844
  H   -3.82591911739136      1.78874683720311      0.76118693277279
  H   -1.90738453558712     -3.05507184432688      0.50058469811578
  H   2.37258389188149     -3.79887418282328     -0.65984543874933
