27
Coordinates from ORCA-job ./opt_b97-3c_parallel
  N   5.03558896390321     -1.57219957026852     -0.16680666204552
  C   4.01972162032512     -1.01562578885401     -0.07998470450790
  C   2.79794885104852     -0.32822631335528      0.02961230449249
  C   2.64754886725854      1.00380368178025      0.46922064188745
  C   1.30772974986692      1.37327765442623      0.36558861002881
  C   0.94640855041591      2.68660815440572      0.69027772370179
  C   -0.14072598884863      3.48061439998532      0.42600190292550
  C   -1.35231983396080      3.23395854611704     -0.24086751574492
  N   -2.08548178274936      2.17589748502339     -0.43576083454629
  C   -1.98185482282948      0.87323534014729     -0.20028092782313
  C   -3.14200583966042      0.11838988001361     -0.13162498842979
  C   -2.80315878609493     -1.24094610830055     -0.04608434432016
  N   -3.64068914504873     -2.27067325200513      0.05493739271820
  C   -1.37887464646952     -1.37667721575646     -0.08710557978662
  C   -0.79798692508682     -2.63733541432931      0.04283720339449
  N   -0.43548979812172     -3.73950121454942      0.15460168230383
  C   -0.80088742626075     -0.09471787258308     -0.13249764561375
  C   0.56833014159278      0.16536384888886     -0.09827819698346
  C   1.53922093835195     -0.83819666909449     -0.29326957136181
  H   3.44847599836574      1.64802815377703      0.79259799634233
  H   1.76726121133347      3.22903716831337      1.14813737812843
  H   -0.00211939132831      4.52767417151546      0.66910373503335
  H   -1.82625185281787      4.14042749065716     -0.61651479893577
  H   -4.13418442103962      0.53014394878709     -0.20362074487906
  H   -4.63078753176835     -2.13239708134567      0.13638194905847
  H   -3.29030412175271     -3.21282677983615      0.10569883089210
  H   1.36125301587634     -1.83591107016136     -0.64962819842995
