28
Coordinates from ORCA-job ./opt_b97-3c_parallel
  N   -3.31421237723268     -2.93583368798747      0.50875311149178
  C   -2.33616612888010     -2.34384784764488      0.29916993201005
  C   -1.14292650648715     -1.61089893012961      0.04171588386164
  C   -0.04028343705919     -2.43255403391696     -0.17782776018452
  C   1.29542125239293     -2.27577630671226     -0.49325076193050
  C   2.23105867421088     -1.23969592599875     -0.43338942589738
  N   3.50345099210036     -1.61021972530899     -0.79855534704453
  C   2.11463739620811      0.08708041453106      0.06745013168537
  C   3.24839435315789      0.81043242108400      0.43816212700733
  C   2.89226817970164      2.14721747165069      0.72048405757088
  C   1.54704998445747      2.29912278650200      0.49233368450270
  C   0.98573839062079      1.03929689973388      0.11923505690326
  C   -0.38449558675340      0.95537349075489     -0.11104827922563
  N   -1.09292838603471      2.10655271080891     -0.21653120820595
  C   -2.38821105048881      1.76313883343367     -0.23180002547933
  N   -3.33905854661358      2.69689261771370     -0.35349467676617
  C   -2.59247291962902      0.36248396472040     -0.12316846316562
  C   -1.34077635279025     -0.20975150679496     -0.07553345378552
  H   -0.32050947751788     -3.47960958528163     -0.16598181249602
  H   1.74314328053268     -3.21881412767517     -0.79031585686117
  H   3.61988057984080     -2.50239240118333     -1.24395537742019
  H   4.11658445446895     -0.89089863362612     -1.13491946935298
  H   4.23871329638277      0.40096391144151      0.55771741158556
  H   3.56665963336087      2.90987631483213      1.07900162985870
  H   0.95816229280413      3.18817401789033      0.62663989807924
  H   -3.07161181551935      3.66298514068290     -0.40889559979535
  H   -4.31261327634886      2.46152879889219     -0.34648683884957
  H   -3.53686613618485     -0.15401946491211     -0.09912582519470
