26
Coordinates from ORCA-job ./opt_b97-3c_parallel
  N   -4.46631214831211     -1.24720439721444     -0.54513655536976
  C   -3.33115028338752     -1.10100452634911     -0.34417281364882
  C   -1.93866603942538     -0.92400564380127     -0.09802558191829
  C   -1.26709849800355     -2.11559733039042      0.04916827291302
  C   0.06519695458825     -2.51244533166753      0.27392186934255
  C   1.27957543441227     -1.88459112940471      0.23507275852360
  C   1.74005185239359     -0.57198469634867      0.04062725222273
  C   3.10910656339792     -0.30065098981674     -0.06292675161246
  N   4.13426900876148     -1.18925436019971     -0.10221948500345
  C   3.32509038224254      1.12702778059666     -0.06362468207716
  C   2.12890268742657      1.74510087309364      0.03216368241242
  C   1.07356762580303      0.74082385912618      0.07261338828197
  C   -0.23155458468659      1.14839198775042      0.10436678751561
  N   -0.45212088617736      2.54051843581908      0.17483711391102
  C   -1.74340408722639      2.70866268655087      0.12622778126429
  C   -2.46414992929006      1.47527580960047      0.01378941384561
  C   -1.54113788091729      0.45934491779449      0.00917818969437
  H   -1.93190663285453     -2.96908786293088     -0.01245583861508
  H   0.14407938362968     -3.57926004524218      0.44371412053078
  H   2.09144298486440     -2.58509874763484      0.41030599531024
  H   3.95005541445429     -2.13284745534546     -0.39263164827667
  H   5.03968721434766     -0.84656464022440     -0.36800712590148
  H   4.29241606449199      1.60173176266791     -0.13745413035085
  H   1.92965399097183      2.80028339267084      0.04304683934555
  H   -2.17888914327848      3.69827652894734      0.16939083517827
  H   -3.53371464132623      1.36563547455248     -0.05371002891802
