29
Coordinates from ORCA-job ./opt_b97-3c_parallel
  N   -4.99857306087483     -1.21645009389403      0.58063456906790
  C   -3.86720229640789     -1.03266009985777      0.38163167367865
  C   -2.52399097561945     -0.71258871956300      0.14367833318128
  C   -1.44766430428365     -1.55663848090664      0.03529956611517
  C   -0.25976403802675     -0.77037742791848     -0.12368761420830
  C   0.97438655583840     -1.38983538553690     -0.21290009562769
  N   1.04016748591663     -2.73701757301375     -0.42985730654981
  C   2.32728589673603     -3.07015745721417     -0.30059932407917
  C   3.16051528672215     -1.99246597213393      0.03508979506926
  C   2.35350537224047     -0.86033484927886      0.08677042817459
  C   2.79381562335769      0.37230790837995      0.56650857009775
  C   2.24596687154770      1.65011123413948      0.50782950233058
  N   2.89519414909943      2.63544876781893      1.21228708875513
  N   1.29616656677270      2.14300010972373     -0.30101113081892
  C   0.10500520563784      1.75876307526174     -0.62170316747156
  N   -0.56971648200265      2.62397247726853     -1.46023883571256
  C   -0.66765644653645      0.62729197071337     -0.16655768777928
  C   -2.05532195345994      0.65179275285903     -0.02625794263792
  N   -2.91579182875260      1.70143204932356     -0.09926954204620
  H   -1.44965896510877     -2.62754211355511      0.12196813728440
  H   2.63842641496649     -4.09331484496690     -0.46674589062596
  H   4.22323913167350     -2.02196855204182      0.21429440600540
  H   3.76993093407440      0.33782760304103      1.03929428365596
  H   3.43177977995487      2.37128579547246      2.01829418057575
  H   2.43476683882201      3.52682082441825      1.25760456140246
  H   0.01194966029236      3.33854164278414     -1.86665815384450
  H   -1.24026888767442      2.21382520011705     -2.08863337000101
  H   -3.84102477615293      1.56784552204623      0.27247458603026
  H   -2.53958123545263      2.62934991991416     -0.01641054472198
