24
Coordinates from ORCA-job ./opt_b97-3c_parallel
  N   2.22033773650633      2.11259601008892      0.48935038091962
  C   2.04766001980453      0.80298695040871      0.23686207003782
  C   3.06738761458826     -0.13044461859217     -0.07270371807422
  C   2.49533447165339     -1.35784645166013     -0.31838733269531
  C   1.09299392845331     -1.28718275237041     -0.12198207036323
  C   0.34324789749956     -2.43088145830587     -0.14275498660157
  N   -0.85065279833237     -2.74064638854742      0.37789467350701
  C   -1.97633024125698     -2.11090724576587      0.45407794387381
  C   -2.43478438771463     -0.86340354556611     -0.04344744954720
  C   -1.81913366337208      0.35423253286529     -0.18617748632529
  C   -2.54524285732006      1.55083782296638     -0.40134961397199
  C   -1.68348927617052      2.58928977217998     -0.13585119122034
  N   -0.42653190098798      2.18705308810530      0.19079580138227
  C   -0.41345463798836      0.83185562100015      0.11985492589690
  C   0.78212315104891      0.13514432688172      0.19653992449271
  H   1.35675855841282      2.65926764815351      0.44236695261755
  H   3.09036868969187      2.54178378377276      0.22723152542133
  H   4.11981912379673      0.10513858422604     -0.12781718424565
  H   3.02538717495798     -2.26661845003624     -0.55755139840081
  H   0.86669115303301     -3.30847165507931     -0.51676183133708
  H   -2.75006057288738     -2.67191432454337      0.97923877214955
  H   -3.51517990541867     -0.82727311171404     -0.14207209321301
  H   -3.59789533688595      1.61447609779108     -0.62066237986571
  H   -1.91272459141151      3.64567437334106     -0.16126292923737
