28
Coordinates from ORCA-job ./opt_b97-3c_parallel
  N   -5.77553539500297      1.20542569088599      0.38392934750119
  C   -4.69399101661398      0.79714629341026      0.26991227654976
  C   -3.38638234239012      0.29723262887692      0.13194699576729
  C   -3.04569957964710     -1.00320574400033     -0.28888800679304
  C   -1.65313871364028     -1.13591267608275     -0.26588814160014
  C   -1.09270715821767     -2.38071134186920     -0.58403364525994
  N   0.04623851030882     -2.95679350182004     -0.33598873691569
  C   1.23469617260588     -2.54628553036512      0.08795415403869
  N   1.96569649457461     -3.53697513046908      0.65547288973128
  C   1.92033902570115     -1.32088938265480     -0.10161673467223
  C   1.51468333757077     -0.01176033140717     -0.16578940430836
  C   2.44624921899185      1.05134756386266     -0.25870724934419
  C   3.82631160381608      0.96322921171639     -0.41059779563045
  N   4.98478364969864      0.91124411330963     -0.53048468490279
  C   1.70913022972150      2.23803515801830     -0.03385849372277
  N   2.19151583680897      3.47766365792888      0.00503683348873
  N   0.38984861661382      2.00628130872566      0.14857198273348
  C   0.19598133854658      0.68342462428777      0.05265549454286
  C   -1.10503061901303      0.16887660016946      0.12967562456197
  C   -2.20510053575780      1.01137973709364      0.36521412120766
  H   -3.74452297059411     -1.78283591101465     -0.54491462568325
  H   -1.80126776444238     -3.05417357314696     -1.06356858373639
  H   2.83057834572388     -3.34714952125577      1.12555775066336
  H   1.55181947374653     -4.44780445506780      0.74229025579869
  H   2.99879672785956     -1.44072724561441     -0.11956495360996
  H   1.56293937798484      4.24458736621035      0.16250112211982
  H   3.16319591766439      3.66529230792021     -0.16237606305485
  H   -2.13529163911874      2.05057553455235      0.63225448532912
