32
Coordinates from ORCA-job ./opt_b97-3c_parallel
  N   2.70057144777186     -4.89165667665273     -0.61509469557115
  C   2.09001241886675     -3.92163346169250     -0.42341950524433
  C   1.33552609911822     -2.76032685593439     -0.18663863517259
  C   -0.06726229506600     -2.72473517310557      0.00753771583210
  C   -0.47722991680334     -1.39659787115839      0.10956483267350
  C   -1.80726023184482     -1.08174106216792      0.53740088854024
  N   -2.37003171706002     -2.02428433062901      1.32455259164446
  C   -2.63400364177231      0.00274667324275      0.16532471584018
  C   -3.94549334102600     -0.04630657581569      0.68579206738759
  N   -5.02426394023794     -0.11172168827789      1.12117034716595
  C   -2.42593653188813      1.05926954495000     -0.78164365461187
  N   -3.54748369065979      1.50085398111146     -1.40821262935654
  C   -1.28205396621028      1.82021060045901     -1.05484506537968
  C   0.00051536721656      1.86863384160712     -0.55304136511046
  N   0.67521174746252      3.04004646378427     -0.69397227498874
  C   1.88776027949262      2.84648928091300     -0.16728635312101
  N   2.78606875325967      3.82305210899396     -0.07792321481332
  C   2.08838269110801      1.49685098276169      0.28763407019302
  C   3.27795189714556      1.06373069882779      0.87167696680051
  N   4.30784772389317      0.80895718644595      1.35271240143138
  C   0.89591924222624      0.82006225786976      0.02517996112458
  C   0.72321005038413     -0.57026035143109      0.00344748711033
  C   1.81542470328048     -1.45380322814778     -0.14569854596465
  H   -0.70765736848054     -3.59117300222106      0.00841521775607
  H   -3.33080005980033     -1.96978592128052      1.61607836595313
  H   -1.78156679354959     -2.70138541374249      1.77120237510337
  H   -3.55317737875898      2.40480061661324     -1.84418324747196
  H   -4.44565379857697      1.10695610474127     -1.18993642869421
  H   -1.48423796657178      2.69435736225599     -1.66354796879690
  H   3.68326955081806      3.66579678365488      0.34529996928101
  H   2.55312300977777      4.74213007989052     -0.40870901757771
  H   2.84051118368602     -1.16488589946590     -0.29288786056182
