29
Coordinates from ORCA-job ./opt_b97-3c_parallel
  N   -3.83055960025113      1.92414582888890     -0.30243767018646
  C   -3.01992837088663      1.09549485934566     -0.17421064674076
  C   -2.17258336081668     -0.00249866999007     -0.04035098791044
  C   -2.69368915205775     -1.34416133515734     -0.10522418862027
  N   -3.99901952351438     -1.61025274480863     -0.23130137285481
  C   -1.64039392489665     -2.24846484552280     -0.02291976133280
  C   -0.43321888147479     -1.54008736429087      0.06987450966923
  C   0.76051702043379     -2.19459684130420      0.29703504680446
  C   2.12009852107677     -1.81258257107258      0.25932703189513
  N   2.99087779722179     -2.71655889981943      0.81215797712618
  N   2.72507420784272     -0.84048791892668     -0.39757093795202
  C   2.42888919099198      0.40485926273394     -0.66512283316414
  N   3.26122556583307      1.01246596787570     -1.54919942929284
  C   1.46175060773358      1.25071840803921     -0.03707988226758
  C   1.69331610698243      2.59006345763503      0.25462384533009
  N   0.59483043786196      3.20567615790083      0.77778748665637
  C   -0.37975548564954      2.30228711823637      0.75106182485271
  C   0.06131277630792      1.02964874792897      0.27681704775014
  C   -0.77770875752328     -0.06648404709734      0.07228617000923
  H   -4.32785964666064     -2.54752398757330     -0.36588327595232
  H   -4.65848560308030     -0.86009167625730     -0.34765902762177
  H   -1.72822392393682     -3.32296651165669     -0.02996769328770
  H   0.63514449967836     -3.25165225424272      0.50720641070016
  H   3.94973976749081     -2.42370752828035      0.87842477246606
  H   2.65772081108144     -3.32259763641651      1.53933115678700
  H   3.96692075853014      0.45553617542601     -1.99753025813090
  H   2.97310241329467      1.86645469382815     -1.98725334253072
  H   2.63089812459046      3.11848996952482      0.16167404223837
  H   -1.36417428580335      2.53542200585256      1.12327002536104
