28
Coordinates from ORCA-job ./opt_b97-3c_parallel
  N   -1.12811284785191      5.27356371530442     -0.00000073360200
  C   -0.83186787750094      4.15125373511843     -0.00125965773053
  C   -0.46419691831412      2.77114732270341     -0.00222193137599
  C   0.93014343581374      2.56672916084704     -0.00671522383682
  C   1.76929763915890      1.48077665336932     -0.00736030455496
  C   1.63897048269422      0.08847495208376     -0.00252684414984
  C   2.77306081149479     -0.73041487223967     -0.00186531189910
  C   4.11731825461732     -0.36175559489266     -0.00535902437907
  N   5.25414534950409     -0.10977506010807     -0.00829606410810
  C   2.29514594929118     -2.08215146800606      0.00580656648990
  N   3.05504789774352     -3.17170769528721      0.00972419782763
  N   0.96095308897543     -2.14530714558195      0.00888659329531
  C   0.49384287043179     -0.87607975444044      0.00389793290194
  C   -0.88812737977579     -0.67997749753669      0.00027891355793
  C   -1.75284083892257     -1.78718885470284      0.00049444617757
  C   -3.07650407006674     -1.33819067404508      0.00023375698995
  C   -4.22007712061513     -2.15805228888113     -0.00017564541486
  N   -5.16482425751511     -2.83308233877544     -0.00093197281998
  C   -3.07681729365759      0.06809632460760      0.00049586304801
  C   -1.75529100195652      0.53255051357586      0.00017823128781
  C   -1.55592840381809      1.90758361226578      0.00019630567221
  H   1.47457781486731      3.50264847424249     -0.01014841070651
  H   2.81173324263430      1.77912809798043     -0.01203724958161
  H   2.62065053779754     -4.07767673638698      0.01533635235202
  H   4.05747427820300     -3.11034738116795      0.00724052751673
  H   -1.43259820506467     -2.81272491062690      0.00083813822997
  H   -3.95411222937971      0.69342174575164      0.00035720456034
  H   -2.49747422108819      2.44396483652886      0.00202839855204
