26
Coordinates from ORCA-job ./opt_b97-3c_parallel
  N   -4.96396464185057     -0.67824807636855     -0.01835842969743
  C   -3.82747836285355     -0.45041799452167      0.06201462629060
  C   -2.43788504063325     -0.15097975548623      0.16740062633849
  C   -2.18169706401898      1.19248281700739      0.60803028689745
  C   -1.09469456363604      1.99886566223626      0.61994373225236
  C   0.25193399821602      1.91329021494995      0.15887052679094
  C   1.00853071876492      3.04924607478327      0.03687428641123
  C   2.33466154518225      2.72360201813782     -0.42033818935376
  C   2.45429025286646      1.37745373296491     -0.50267242597434
  C   1.17404083683499      0.77349504157131     -0.13842901657019
  C   0.98324089044430     -0.56751173695367     -0.03071251534486
  C   2.09277026356853     -1.57142164367228     -0.01581111574756
  N   3.40565250267383     -1.31078734765879      0.16146463551204
  N   1.65094631103138     -2.80330737638444     -0.12428307707857
  C   0.28606821529380     -2.70566627881453     -0.19774599846366
  C   -0.21515786732334     -1.42263913198227     -0.06329616819354
  C   -1.60622230567562     -1.20519430531961     -0.11083784066119
  H   -3.08001693702819      1.67756307159582      0.96953022026236
  H   -1.31342382924015      2.99163656439622      0.99842196924513
  H   0.65215636884981      4.04678380425011      0.24382526804511
  H   3.09144043314140      3.44554728126528     -0.68710466733702
  H   3.28420277835079      0.84261598588472     -0.92873262581077
  H   3.96992292720816     -2.11847593133546      0.37115564917796
  H   3.67094177553924     -0.45786977841572      0.62168434402242
  H   -0.30698236843279     -3.59792909372309     -0.33582362706645
  H   -2.13999396797344     -2.11418611240677     -0.36571179394673
