25
Coordinates from ORCA-job ./opt_b97-3c_parallel
  N   4.26479879558202     -0.75858944775368      0.00810116446553
  C   3.12396635186789     -0.54279060897275     -0.05705271889229
  C   1.71311889731379     -0.42882286005822     -0.07647269852100
  C   1.01104308511197     -1.66808915669741      0.20664344389628
  N   1.67984831679426     -2.57658397241902      0.94207004175713
  N   -0.13245522447255     -2.06837858502805     -0.28609873855409
  C   -1.31566379651092     -1.57998296488071     -0.55090532840142
  N   -2.08535816749569     -2.33035569089227     -1.36829885778497
  C   -1.93551843669651     -0.43602099280484      0.03957553755179
  C   -3.27813850013301     -0.34151910437572      0.36353041005327
  N   -3.61867226187873      0.90650846231766      0.82583104083912
  C   -2.52196685041993      1.64016284573024      0.74700928053799
  C   -1.39248547713727      0.88677966792074      0.28450611790365
  C   -0.16420535609467      1.45362597724853     -0.00670397745630
  N   0.00098573227773      2.79317976733619     -0.04835223251076
  C   1.29112288009155      2.96289271053290     -0.37473069663488
  N   2.04792339767789      1.86402507459639     -0.52303700914201
  C   1.19895243831035      0.84454406130425     -0.28238136214654
  H   1.31347543514070     -3.51025427052251      0.99167668774590
  H   2.64367467041282     -2.43056227206717      1.18874104701510
  H   -2.91750167425810     -1.94041437547974     -1.76798041939755
  H   -1.70208658845248     -3.16787933850050     -1.76927305772260
  H   -4.01362835365541     -1.13179062017618      0.33251523719588
  H   -2.49981805042067      2.68263807856902      1.01959845145182
  H   1.70410738954526      3.94990017677296     -0.52884326184877
