29
Coordinates from ORCA-job ./opt_b97-3c_parallel
  N   -4.08722348899652     -0.04841073523055     -1.14326966324229
  C   -3.13574605806981     -0.61451959880587     -0.77142195107403
  C   -2.00049588535510     -1.24862750504107     -0.27724035204465
  C   -1.89451414398979     -2.63632824160851     -0.06547141559575
  C   -0.59664818182953     -2.95930524561254      0.29513887039858
  C   0.20678150703743     -1.80720916495903      0.25474161294751
  C   1.54356223314766     -1.84395219645544      0.63925966434968
  C   2.62927686084929     -1.02313541326993      0.32836856986785
  N   3.81632186321999     -1.29386914506825      0.94039859860421
  N   2.73554542537681     -0.06984914004143     -0.61804628176185
  C   1.97685637831041      0.96701292419792     -0.78910317829465
  N   2.35952059526907      1.83567523849649     -1.76416502636052
  C   0.81802562171673      1.37981366115305     -0.01840753990436
  C   0.55433928145819      2.69575979916530      0.33442144469328
  N   -0.71260689142157      2.90416221348103      0.77525797262479
  C   -1.34827530223706      1.74581801969244      0.62232325559234
  N   -2.58964475097254      1.58787460936981      1.11008758029244
  C   -0.42888642523090      0.67809285867274      0.11850736784998
  C   -0.71462298293774     -0.66056249745858     -0.05769551392955
  H   -2.70697556667757     -3.33310832194313     -0.20384251204095
  H   -0.22991283393519     -3.94881497384668      0.51578703583377
  H   1.81364413619389     -2.73887471561982      1.19104948207430
  H   3.92745800336661     -2.14379670634058      1.46343581025120
  H   4.64217730106721     -0.90753484792386      0.51897709908289
  H   1.67205374320920      2.45863458056803     -2.14622474288233
  H   3.10985465611347      1.54767026900630     -2.36929384066667
  H   1.24624256286500      3.52336734444665      0.26446192512047
  H   -3.23352890048707      0.94887773155739      0.66980049729196
  H   -3.00084623226060      2.43622396671798      1.46478994212237
