23
Coordinates from ORCA-job ./opt_b97-3c_parallel
  N   -2.10091138776121     -2.24150113419174      0.48530141692895
  C   -2.01510345600042     -0.92404945065270      0.24735068020785
  C   -3.09802672753055     -0.05808302523730     -0.07059649583757
  C   -2.60503623148087      1.19805795271466     -0.31898563198351
  C   -1.19778692011814      1.21707110706048     -0.10925000441671
  C   -0.50810952238717      2.39436558746102     -0.13823313087275
  N   0.65650298206782      2.75003797043071      0.42857323626141
  C   1.81550023843546      2.20187949565475      0.50151328296730
  C   2.36227939195682      0.99945020013714     -0.04086181796933
  C   1.81149981877137     -0.24144657424369     -0.16322689041672
  N   2.63590835074759     -1.32349576440337     -0.38498762908581
  C   1.86563457965773     -2.36861178415611     -0.14535721334436
  N   0.57082596144249     -2.13508186185307      0.19128372104334
  C   0.44017456627522     -0.78730707667492      0.13864645959815
  C   -0.80081010406331     -0.17329997701539      0.22123928445952
  H   -1.20820978926728     -2.73715836096101      0.45802445272769
  H   -2.94324402509658     -2.72906699647642      0.23651265967775
  H   -4.13191169995287     -0.36295239758979     -0.13197582680965
  H   -3.18902893029527      2.06984677645825     -0.57006022987844
  H   -1.05245604807161      3.24765690321769     -0.53551035359652
  H   2.53791563085999      2.77534224442473      1.08341907019944
  H   3.43982322488825      1.00817374378594     -0.15536726300736
  H   2.24245654682254     -3.38040175538989     -0.20936996775262
