33
Coordinates from ORCA-job ./opt_b97-3c_parallel
  N   -1.97970500451913      4.21023195153556      0.99808245420957
  C   -1.62014810170788      3.18970308476844      0.56366095787352
  C   -1.20988661634141      1.94252596837153      0.06011979804047
  C   -0.24866967400118      1.99442905869887     -1.03838226473506
  N   0.81715002093248      1.32248751187900     -1.22330501347897
  C   1.36517561331225      0.39767452565108     -0.37837146114460
  C   2.71738564034706      0.39074415470044     -0.08545560067734
  C   3.67654894233511      1.34656219509355     -0.42250634741800
  N   4.53619856617095      2.09655929349783     -0.65526010028433
  C   3.02525596884768     -0.85436705051329      0.60630651568647
  N   4.25893909274721     -1.12103924527324      1.08694352377016
  C   1.88860282026474     -1.63681980044007      0.64156327256608
  C   0.80765188453844     -0.87715315238893      0.09026445471046
  C   -0.50622195071802     -1.27987624849008     -0.05280445041657
  C   -0.88307328853660     -2.69590024673387     -0.24850328226494
  N   0.01352098894310     -3.71191239794363     -0.32860113256900
  C   -2.24234990174041     -2.77478393501478     -0.41616416778493
  C   -2.77479057121599     -1.46506019289875     -0.26830136059460
  N   -4.09807133156996     -1.20540583126040     -0.30972956175474
  C   -1.72806379053989     -0.52442212980961     -0.06146021809917
  C   -1.95432619885180      0.82069818207107      0.39197568000983
  N   -3.11044046477948      1.00522332216156      1.12720593340574
  H   -0.45686592115393      2.74780407818839     -1.79807036224870
  H   4.91774597676129     -0.36746720994693      1.17900953284424
  H   4.39383981028778     -1.90527596266417      1.69804067263604
  H   1.77860260834564     -2.53217464478080      1.23121498269276
  H   0.97405937746764     -3.44922859462267     -0.49053881311771
  H   -0.28105663129873     -4.54143514885573     -0.81499987314796
  H   -2.81409528106795     -3.65925010686954     -0.64950245746339
  H   -4.41116055725384     -0.25004233842537     -0.32406434013301
  H   -4.72722007736748     -1.90571338362690     -0.65578841871655
  H   -3.24621130966564      1.92623290830939      1.51530059876612
  H   -3.33911494415986      0.26399925592244      1.76835610983265
