32
Coordinates from ORCA-job ./opt_b97-3c_parallel
  N   -2.97671742355470     -2.02502726028005      1.60382899200464
  C   -2.09050355271349     -1.67911287089603      0.93111449760070
  C   -0.94444332258316     -1.35784939859666      0.16776086657734
  C   -0.26392238043433     -2.49120290664004     -0.36139044464109
  N   -0.91623874142421     -3.68079146376678     -0.25687322293477
  C   0.96485943199421     -2.57065868315137     -1.04813768314629
  C   2.10901142850673     -1.81154714107745     -1.02163068840391
  C   2.51255000365207     -0.60945472657981     -0.44774791902567
  C   3.87497170729757     -0.30113808413637     -0.36344816908903
  C   4.05969758162462      0.92786971071485      0.27446220442612
  C   2.80907478854952      1.47506021129845      0.54718252473982
  N   2.59771985514874      2.69328107992993      1.15108416808454
  C   1.78862774277975      0.56323043489029      0.08554992447667
  C   0.45564258568510      0.91306085634558     -0.04464687271631
  C   -0.00361331327388      2.24962136875068     -0.05885598584587
  C   -1.38276767432803      2.25663770637617     -0.17147089828042
  N   -2.20253868098800      3.30470742189420     -0.31502281636563
  C   -1.86149654504043      0.89165391900034     -0.15317685968693
  C   -3.21875791792925      0.60582238988312     -0.31110843513033
  N   -4.36554245526918      0.50505381457353     -0.48893852334059
  C   -0.77110420295333      0.02888023393660     -0.09367336999987
  H   -0.40708169969781     -4.53319341661286     -0.39314635899308
  H   -1.78519926819851     -3.74585039761307      0.24447293487472
  H   1.08780972113546     -3.51442983255405     -1.56693323756636
  H   2.93623656131424     -2.31217800933063     -1.51642750376076
  H   4.66369762687839     -0.94924044673230     -0.71445066629912
  H   5.00777347357514      1.38019108612529      0.52331646766448
  H   1.71532149241269      2.78359635529603      1.63122672134687
  H   3.36961818831991      3.01392770756703      1.71301954635924
  H   0.62796894244443      3.11416096840917     -0.16647311340743
  H   -1.84112064714415      4.23265419660459     -0.43187383737260
  H   -3.18294663228690      3.15935873437265     -0.48497992084988
