26
Coordinates from ORCA-job ./opt_b97-3c_parallel
  N   5.56282419135400      0.52422893493448     -0.22898999738647
  C   4.45234084027775      0.19478999254351     -0.14710454863538
  C   3.11060561851536     -0.21568591069765     -0.05097308596555
  C   2.67614366063398     -1.44930507137356      0.43928332037925
  C   1.28045993219063     -1.50791891443880      0.29460833329774
  C   0.61829776475673     -2.71047433149465      0.45724340595422
  N   -0.43027140832153     -3.16064372188951     -0.20066642599036
  C   -1.55703156584632     -2.70952875143053     -0.62584901038240
  C   -2.25232088009912     -1.52783238681935     -0.26197266364196
  C   -1.80878255187447     -0.27122938562863      0.02647971801868
  C   -2.77343003519255      0.78353874738385      0.24343159082363
  C   -4.14832760857642      0.57881945471026      0.41530695050494
  N   -5.28361103508187      0.36747932091573      0.54976939453642
  C   -2.11939267189188      1.99118892530845      0.19321314001591
  C   -0.73370991325520      1.77288899243119     -0.02373989461671
  C   0.16990595203574      2.84424531782303     -0.05190588555391
  N   0.87462188440725      3.76871216117106     -0.07106942873502
  C   -0.46713735518719      0.39098182012633     -0.09971950659991
  C   0.82330261791685     -0.17528280348554     -0.20065340560349
  C   1.98730222398882      0.55938287861930     -0.42426864297194
  H   3.30814283311866     -2.25797661564514      0.76596402466093
  H   1.12744856259883     -3.47284714973302      1.04106361031538
  H   -2.09215753498722     -3.37839140517013     -1.29634562302513
  H   -3.33132743506555     -1.63090684211894     -0.31655891609142
  H   -2.57178515079067      2.96165585842348      0.31472857893929
  H   2.05235855877602      1.57460791943643     -0.76675436804582
