22
Coordinates from ORCA-job ./opt_b97-3c_parallel
  N   -3.96987456715628     -1.03621254013836      0.46886936752094
  C   -2.75061565440325     -0.57256076392257      0.20577420264635
  C   -1.61210275020580     -1.35905950261328     -0.14371301899227
  C   -0.55402648604707     -0.49009350592304     -0.21537186178908
  C   0.81810182078479     -0.80069372841969     -0.28126701170095
  C   1.32064904604555     -2.09400677350211     -0.48495400827562
  N   2.61882878652083     -2.22490060921166     -0.13289076875516
  C   2.98536373231343     -1.03583349129334      0.36896858300517
  C   1.95887611797420     -0.07302893277164      0.28273233172575
  C   2.16032185267634      1.25329160158533      0.66755945642379
  N   1.59987577732262      2.34679162870478      0.21452886846837
  C   0.50101901094542      2.52839486471889     -0.48092934851503
  N   -0.70819284582614      2.05443718931265     -0.31413988832002
  C   -1.20905592508702      0.88910487314167     -0.02063911296049
  N   -2.50641290217583      0.75235154595451      0.29107354105382
  H   -4.20336825893009     -2.00488485717320      0.35822530015240
  H   -4.69156130405142     -0.38729915409262      0.73007223028134
  H   -1.57670676004849     -2.43504810711991     -0.17504367870911
  H   0.76823090845434     -2.94416780046289     -0.85760407579223
  H   3.99077859299856     -0.86367806779572      0.72598455967759
  H   2.99648158987750      1.42868900710370      1.34020091634322
  H   0.56776113951764      3.32459162121863     -1.22159835478862
