30
Coordinates from ORCA-job ./opt_b97-3c_parallel
  N   4.81298263967395     -3.06227366285793      0.16146149987186
  C   3.92769781264063     -2.31967178244529      0.04420674104066
  C   2.83528987835740     -1.41383872686202     -0.09080862171830
  C   3.17929276716933     -0.18393423346827     -0.64093861817865
  C   2.53933741660179      1.03335830966416     -0.82504326193676
  C   1.30328022647662      1.57405034365804     -0.51088712094010
  N   1.21434097077967      2.92735393846494     -0.59147702355880
  C   -0.01060815728909      3.26433986632737     -0.19093040627044
  N   -0.39472284211850      4.53322717379432     -0.07988153538660
  C   -0.82659595358983      2.12167369461269      0.11672126129976
  C   -2.06511205823306      2.25398289455385      0.73655950288893
  N   -3.10097779282624      2.45286847362590      1.23422440768866
  C   -0.02971900349410      0.98763569861502     -0.12308424753877
  C   -0.46712287204840     -0.34067500685287     -0.12349579922669
  C   -1.82334771255010     -0.73622354400391     -0.25830534209311
  N   -2.86853537595192     -0.06928857555541     -0.78427893374035
  C   -1.93521083088838     -2.11675986037061      0.11748953369226
  C   -3.14147845426300     -2.82971714918993      0.08656492975920
  N   -4.17233762239817     -3.36511263192652      0.03951394521018
  C   -0.68378929487532     -2.59336066282149      0.45427928911445
  C   0.28236198593221     -1.58289547323422      0.23911650229507
  C   1.59779078561123     -1.96511592009594      0.31168913071636
  H   4.21962077178833     -0.14326240610336     -0.93964233512785
  H   3.19784440453510      1.80443582510141     -1.20405335946423
  H   0.27672652665255      5.26310117289475     -0.24124261740252
  H   -1.29007851867992      4.77243790804348      0.30784748848285
  H   -2.84173116118560      0.92628286105606     -0.88892006476473
  H   -3.78955383431678     -0.45103966352890     -0.65017587611406
  H   -0.45938903078174     -3.60401201687417      0.75129440919220
  H   1.70766399247171     -2.97993523012077      0.67446828531012
