30
Coordinates from ORCA-job ./opt_b97-3c_parallel
  N   0.43098920521638      3.88736004809210      0.88954068597930
  C   0.39640415678583      2.63357739902555      0.31742713697255
  C   -0.89142892669868      2.27442946168217     -0.19182454346878
  C   -1.53797851789182      1.06760837591626     -0.20642872312645
  N   -2.88329615659435      1.02416272459538     -0.41049098454241
  C   -3.21843596769741     -0.23768991609117     -0.11339490481240
  N   -4.50359207304521     -0.64652669726587     -0.13052832826669
  N   -2.22395656835092     -1.08199756456574      0.24689039107193
  C   -1.09238901945531     -0.33099419775261      0.13616894414482
  C   0.16571294344479     -0.88966907671341      0.22479695183079
  C   0.36064647698950     -2.31275458103598      0.36125206656157
  N   -0.59624348492310     -3.19839497070991      0.65369983028610
  N   1.63461666972529     -2.69105280732916      0.14987910079326
  C   2.31339537164211     -1.57131496680038     -0.15095908996446
  N   3.64867978912687     -1.66013284689787     -0.40811665856534
  C   1.50165964058954     -0.39567682201087     -0.12287166072931
  C   1.98409942630989      0.89601787868001     -0.27657050563983
  N   3.20836906842048      1.06213639351367     -0.91800381720643
  N   1.54696431057709      2.03349681526381      0.27187340649091
  H   -0.41484317361198      4.21619451503423      1.32092604903743
  H   1.27815990373208      4.10016429826972      1.38903160871252
  H   -1.55175703203454      3.11489242992416     -0.36518042072814
  H   -5.15926193980174     -0.06239133036258     -0.61678468109159
  H   -4.67821015658939     -1.63452858140224     -0.12670785223080
  H   -1.54793974744336     -2.84135444833754      0.59087538916020
  H   -0.39094783365231     -4.17176432235868      0.51140556773914
  H   4.06402633270854     -2.51299541802823     -0.06901723218931
  H   4.18820457118307     -0.82463796361736     -0.24188532696170
  H   3.33498355561837      0.51358996243914     -1.75387755023258
  H   3.45035545232106      2.03304466434220     -1.03390865222516
