26
Coordinates from ORCA-job ./opt_b97-3c_parallel
  N   -5.09339934256904      0.03544790628102      0.24388439474372
  C   -3.94022273361735     -0.08883179392238      0.17395252721934
  C   -2.54893349173601     -0.26230901557830      0.08148345023285
  C   -1.91011245628689     -1.45107079862301     -0.34863164506076
  C   -0.53829018671144     -1.27629892677091     -0.23035099875763
  C   0.37619880603020     -2.33331076931081     -0.50560763776349
  N   0.11213149255905     -3.16871051252073     -1.52011012993045
  N   1.36124526668098     -2.69772216057926      0.31116598673214
  C   2.24815524241159     -1.98982934866356      0.93328583754801
  N   2.79803950017572     -0.83151379909176      0.58599919017099
  C   2.32786613423700      0.29198683633018      0.14859275150682
  C   3.18499823364303      1.37157612455726     -0.21663535459277
  C   2.43605897337108      2.50894190277829     -0.23784696660304
  C   1.05014438637402      2.21567920374808      0.03491510204875
  C   0.05740345058125      3.19836192965242     -0.01746871642706
  N   -0.74039004158800      4.04485606832773     -0.06047790351566
  C   0.89939708794330      0.83840450221232      0.19845447381764
  C   -0.29842212240100      0.10508883517906      0.23637328054630
  C   -1.57225571539673      0.68226220075182      0.40649609871549
  H   -2.41739939152434     -2.36422741166181     -0.61318396068285
  H   0.60588412955027     -4.04129393664659     -1.59053314809097
  H   -0.63212206836192     -2.97347244127005     -2.16340258656599
  H   2.74215768563292     -2.48257179285141      1.76648952863850
  H   4.25316924615420      1.28387519752294     -0.31187247780608
  H   2.79738391556302      3.50784542473043     -0.42842357188983
  H   -1.77268547281412      1.68941982601786      0.72159009676876
