29
Coordinates from ORCA-job ./opt_b97-3c_parallel
  N   -3.85716620634672     -2.71932519061358     -0.49475414440740
  C   -3.07381568999393     -1.86756556128424     -0.36518781548510
  C   -2.19811824822048     -0.79235626152676     -0.22157913688603
  C   -0.81318075721265     -0.84414662354082      0.04101277650665
  N   -0.19892578450059     -1.95362569777241      0.32723550115534
  C   1.08010021086828     -2.30088486758351      0.38648793580877
  N   1.39035305760993     -3.19684310983120      1.34080833425872
  N   2.03609697428993     -2.02966827373152     -0.50774461119163
  C   2.50120001715253     -0.84498037167827     -0.80141994117444
  N   3.42655858166764     -0.79228117186527     -1.78398735545327
  C   2.24393621578214      0.39323380104998     -0.10528342674054
  C   3.21094955497435      1.35134898764595      0.13671971535100
  N   2.69946199444148      2.48194439131985      0.72424527444696
  C   1.39218467624213      2.30204357148924      0.78407735107991
  C   0.99194098107131      1.00572424247586      0.31177651625713
  C   -0.32211648796250      0.58581282647642      0.16769212456218
  C   -1.47029988672977      1.39401031223097      0.09646729392920
  C   -1.58707121027906      2.78329829050035      0.10593969633319
  N   -1.79045805968692      3.93066068256954      0.10500393039590
  C   -2.60273059531426      0.56242788634045     -0.16793464819780
  N   -3.83925758869537      1.00590808155884     -0.34707369072743
  H   0.64579098382188     -3.64234550305656      1.84726008051591
  H   2.28839894294282     -3.64384824786762      1.30866423949421
  H   3.64716682350989     -1.63500357416239     -2.28464111104266
  H   3.66639772452526      0.08941454686451     -2.19517570300956
  H   4.27147256072083      1.26209744417530     -0.04684946830989
  H   0.74182598749704      3.04969778091363      1.20924124427116
  H   -4.04957265570055      1.98690181160149     -0.27447752812156
  H   -4.58837355957396      0.36959588710196     -0.55856402561854
