28
Coordinates from ORCA-job ./opt_b97-3c_parallel
  N   -5.18101035556085      0.21760236888008      0.44240720282325
  C   -4.02686937761413      0.28922206543886      0.30217089582098
  C   -2.64097276584119      0.31049750443934      0.13131743799800
  C   -1.80196332317480      1.44080121393303     -0.07487988002790
  C   -0.47604013044164      1.06231523406123     -0.16861696285191
  C   0.55777458823679      1.93444687292220     -0.68658503559367
  N   0.12371275029632      2.89635174807169     -1.55568116836152
  N   1.82030213325355      1.95888672819269     -0.39495355087338
  C   2.45115379186641      1.24325297158954      0.56478291065195
  N   2.97885293417894      1.98601689844101      1.56673957032212
  N   2.76588664393239     -0.03149994151646      0.56814590767422
  C   2.10620049667322     -1.06176406470777      0.05180878382113
  C   2.66089219258519     -2.31234328917811     -0.17522067157820
  C   1.59035279810486     -3.19564211634508     -0.37482914192359
  N   0.38303430955717     -2.62420182540144     -0.30059872047053
  C   0.61034036776245     -1.28263022376177     -0.10175639786055
  C   -0.42570266877006     -0.38814642073596     -0.05127167643221
  C   -1.82960409020365     -0.82941835583266      0.08940980965967
  N   -2.19822610703375     -2.09979722604966      0.21032494241420
  H   -2.16651092840859      2.45224668001011     -0.15982366335092
  H   -0.67325042106597      2.68459836194689     -2.12893170511356
  H   0.84380838659136      3.45255103495514     -1.98530732877040
  H   3.67822556690343      1.55650309011830      2.14640878889738
  H   3.00138733663829      2.98335655711779      1.45703062299849
  H   3.70744818243885     -2.55589381725419     -0.11566302785209
  H   1.66790168287411     -4.25660850691003     -0.57298152344765
  H   -3.16965022325410     -2.34045835630776      0.30645142929460
  H   -1.47568581902472     -2.79794386121732      0.02888673123215
