34
Coordinates from ORCA-job ./opt_b97-3c_parallel
  N   -1.33584233123144     -5.24157426762943     -0.79488919671699
  C   -1.07958781802463     -4.13315109139305     -0.55077841377626
  C   -0.67072806022668     -2.82617149661861     -0.25989267915691
  C   -1.44784066244479     -1.69555813270232     -0.10354711430233
  C   -0.59849157502581     -0.56437969758313      0.03799029611331
  C   -1.12413259307256      0.72451400750381      0.07818068153417
  C   -2.45432994029342      1.07380570665710      0.38663841415025
  C   -3.45428479043730      0.35738214106652      1.03953530411181
  N   -4.34674522245305     -0.16796033716925      1.57489018510555
  C   -2.62998881656819      2.39889687361203     -0.10372517413064
  N   -3.74019071061442      3.12815886582088     -0.00617105189012
  N   -1.52197718037547      2.88852865898363     -0.69634286860593
  C   -0.56115638231331      1.95312804637015     -0.55472364758731
  C   0.68227274680602      2.21425869743312     -1.11829491261716
  C   1.96942748094955      1.82407775065873     -0.77990029023327
  N   2.97011675712139      2.50345494392653     -1.40350062464523
  C   2.41906071648466      0.89581002618356      0.23502260214380
  C   3.61818918974711      1.27218624911486      0.87427935237196
  N   4.61957487348185      1.54919956807631      1.40341459087293
  C   1.95625913704140     -0.39662956266793      0.52394262309498
  N   2.75407714659345     -1.17115660671801      1.30587947336699
  C   0.77787926188749     -1.05125975808456      0.03404787567669
  C   0.71161218933817     -2.44374271713352     -0.14176628170152
  N   1.72022617330753     -3.36325716976564     -0.15611623884368
  H   -2.51858206647406     -1.66393020868823     -0.19312989334494
  H   -4.54892190745205      2.77874623192352      0.47557121088225
  H   -3.74250417130774      4.07063410228019     -0.35171769005100
  H   0.63623452248485      3.04870251372674     -1.80925566468937
  H   2.76330296889251      3.36685267787900     -1.87263219725536
  H   3.92204090556814      2.38186050000692     -1.10631351745947
  H   2.35346638592388     -1.97051630716364      1.76191051286491
  H   3.58711298529468     -0.78602857326302      1.71789283473790
  H   1.48596757498094     -4.26940225386137     -0.52849666103931
  H   2.64017058591282     -3.04120042697996     -0.40244613118234
