28
Coordinates from ORCA-job ./opt_b97-3c_parallel
  N   -4.35262722589432     -0.17213107389641     -1.23188328135453
  C   -3.26098923406690     -0.20588638326690     -0.82996791974133
  C   -1.93942200128143     -0.27300020392519     -0.31390087828806
  C   -1.27953759470991      0.92770760426778     -0.31231653689447
  C   0.00523180152733      1.36417448947563      0.05383004430735
  C   0.28214809106422      2.72963356400759      0.21374532674165
  N   -0.57551489564565      3.77047585509744      0.24762820220484
  N   1.64041763881364      3.00192901394932      0.31133012658495
  C   2.24159308225952      1.85187198606069      0.17322056156867
  C   1.31659254742033      0.73567136808537      0.02204158535569
  C   1.74915859859096     -0.55051714405001     -0.14385462062706
  C   3.12908059211217     -0.89949289891492     -0.37177252013879
  C   3.23998661138272     -2.25704066264031     -0.33812821873003
  C   1.95814908254801     -2.83486748074718     -0.06741392762411
  C   1.00370162780924     -1.84556572803549      0.01869234828073
  C   -0.33083216924330     -2.15626849650731      0.36544201739953
  C   -1.56589217720146     -1.57419150388453      0.23723844070048
  N   -2.64470163210413     -2.31194144044109      0.68775249579807
  H   -1.90233583771849      1.73560387299450     -0.68738004135298
  H   -0.17927540822159      4.66477416330568      0.47823260987034
  H   -1.52870753388596      3.62378363994994      0.52458142160337
  H   3.31505292187163      1.77529340564747      0.24258750873456
  H   3.91983970104064     -0.20209082653037     -0.58563814047689
  H   4.14821882299749     -2.81914783646802     -0.49749268665113
  H   1.76341444959884     -3.88975249422925      0.04931170610453
  H   -0.39751511408739     -3.16915702947626      0.75447897975461
  H   -3.56145595625054     -2.05177784467999      0.36512947365206
  H   -2.51328973522575     -3.30482515554779      0.77061486181773
