31
Coordinates from ORCA-job ./opt_b97-3c_parallel
  N   4.95198582832864      1.78255066185429      0.03182627168642
  C   3.90660514476494      1.27131904981902     -0.04408080988093
  C   2.65739711424056      0.65862828191203     -0.12311992310734
  C   2.40340837232773     -0.61514511182332     -0.64123049452535
  N   3.34615782217193     -1.39494782913033     -1.22952129004312
  C   1.01594486509445     -0.92827407605543     -0.40323353527203
  C   0.60189319886591     -2.23239198293923     -0.46699826398155
  N   -0.37772722913655     -2.90227654463428      0.13322838786723
  C   -1.59218240400811     -2.58870948516892      0.47696244823434
  N   -2.23095575625321     -3.52602164148499      1.24470380550380
  C   -2.44286916932267     -1.50588427726529      0.06558326656478
  C   -2.21217386843693     -0.17767378662299     -0.10824081415068
  N   -3.30234351894802      0.62724304238423     -0.34082949059036
  C   -2.85768927336476      1.87244947671865     -0.23470212019110
  N   -3.69063213834098      2.92396686135448     -0.37912083048138
  C   -1.46202599537395      1.96458231290722      0.06083024820963
  C   -0.97219353163749      0.67300384951569      0.08211771829125
  C   0.38636597787703      0.28752565933818      0.15910007406451
  C   1.42890329110966      1.20105944436683      0.36993830075994
  N   1.34596789782702      2.47168504204091      0.86435342514046
  H   4.30831031691344     -1.16472156514074     -1.04635099472320
  H   3.17039047419090     -2.37799215233824     -1.32328983978471
  H   1.28164621157153     -2.91384665917043     -0.97561899868688
  H   -3.01973349243111     -3.23792809554854      1.79470781804532
  H   -1.64928935943061     -4.24941867846822      1.63206848567605
  H   -3.49302206063609     -1.76594379120414      0.00654585413485
  H   -4.59212723059153      2.73803203623961     -0.78354518671780
  H   -3.30797412405631      3.83925110291140     -0.52693577293445
  H   -0.89300065645157      2.87762110768731      0.05837293526878
  H   2.22146753940829      2.88015084352305      1.15049088718147
  H   0.60052655782651      2.63609760262135      1.52091317104221
