28
Coordinates from ORCA-job ./opt_b97-3c_parallel
  N   -0.30998194674220      3.72215284007076      0.33519136729393
  C   -0.17137045913638      2.34477260623047      0.16940657254612
  C   -1.36761181517687      1.62961817944191      0.37305636532260
  C   -1.79854775877986      0.34954266355375      0.13389038877564
  C   -3.18458933275321      0.06133019073109      0.11646939380847
  C   -3.35503626559132     -1.26655493995292     -0.23472720331814
  C   -2.10233127388471     -1.89018015548119     -0.37329355093348
  C   -1.09196138434354     -0.96243877561930     -0.12836866589707
  C   0.24730981468587     -1.31313667201688      0.09217787398979
  C   0.61330243985102     -2.65200141869022      0.38069012620873
  C   1.98681486623259     -2.73602407165467      0.51553021927041
  C   2.54444707934894     -1.47045035632466      0.26946024932610
  C   1.51408477987300     -0.55095525364744      0.02568767646723
  C   1.80461407155402      0.76952501162078     -0.39915633804682
  N   3.10205196692546      0.95082538055056     -0.84845459142309
  C   1.07194417994796      1.95538535428815     -0.32158369835690
  H   0.51753907883703      4.21930245772931      0.61515906972574
  H   -1.12617420463576      4.02480633958045      0.83697330450909
  H   -2.18823582059618      2.28033360325940      0.66440722920054
  H   -3.96098810307819      0.79854832375937      0.24698925119666
  H   -4.30731858978411     -1.75158761190054     -0.39634969232076
  H   -1.94545251388187     -2.92584944520382     -0.62172149972090
  H   -0.08863609463749     -3.44809203067357      0.56054835607535
  H   2.54091189332502     -3.61655179891206      0.80518553855523
  H   3.59152226659450     -1.22828684958402      0.35407061431402
  H   3.30997215181109      1.82625848812947     -1.29497291503071
  H   3.52024755220056      0.15741527511790     -1.30131804363365
  H   1.65303911393460      2.81559490079856     -0.64198833410405
