29
Coordinates from ORCA-job ./opt_b97-3c_parallel
  N   3.65422319090895     -1.06749824823580      0.95148108974491
  C   2.90549509791917     -0.24576115433417      0.60296818760123
  C   2.03125259420313      0.76137059456022      0.18422896846922
  C   2.40249300864745      2.16441286146589      0.15681614586663
  C   1.31360949877247      2.89832347840100     -0.16471094825932
  C   0.18068636925463      2.01061027015470     -0.31476119349976
  C   -1.05256534538913      2.50565130360213     -0.60698900742062
  C   -2.36203007015078      1.95897496426308     -0.61104003190562
  C   -2.92005377160968      0.86139252941717     -0.04696136564221
  C   -2.42925059902241     -0.32623223352160      0.60045534716433
  N   -3.31586345496073     -0.86835835017201      1.49536393394816
  C   -1.28779350979917     -1.03549433897957      0.26258596188912
  C   -1.28326171063776     -2.46559169308526      0.28133855948700
  C   -0.16550626844125     -2.91130983844562     -0.37514888098681
  C   0.63862605016958     -1.79093015149803     -0.73872542669547
  N   1.77329812755003     -1.91403709624778     -1.50886341054671
  C   -0.00048114154042     -0.61402866280906     -0.32393421218839
  C   0.67560079516637      0.62628563230160     -0.13003382750251
  H   3.38916953347331      2.52885883788638      0.39539058801258
  H   1.25067955415969      3.97255504854070     -0.23166274049223
  H   -1.05051509653125      3.56571682465180     -0.84128127552724
  H   -3.09343531291347      2.63524064693393     -1.03944168232832
  H   -4.00681733964795      0.86608468057583     -0.08878697420664
  H   -4.29502764956528     -0.65961833731243      1.40134046434611
  H   -3.10539166282800     -1.76974018128610      1.88445625344545
  H   -2.11820635937508     -3.08997695703145      0.55791629434487
  H   0.04793717625671     -3.93377997704096     -0.64762948067848
  H   2.41352756374718     -2.63173437704159     -1.20425369430445
  H   2.27067312168377     -1.05005324331338     -1.64872610683458
