27
Coordinates from ORCA-job ./opt_b97-3c_parallel
  N   3.17583127517245     -2.53053884192260      0.23374358838321
  C   2.57318182827993     -1.54313824511911      0.08392713518812
  C   1.97151013878865     -0.29799466322610     -0.08182656946072
  C   2.69667149262115      0.90625929481172      0.15122009580668
  N   3.99672627683609      0.94638412658337      0.44616950511024
  C   1.83630118729837      2.01930450255885      0.01817730270766
  C   0.57147466422256      1.56150041402209     -0.28795186940498
  N   -0.37936662074010      2.36053801093978     -0.77394522766874
  C   -1.67665709647983      2.32741916970374     -0.70482017173340
  N   -2.49099491754342      1.72130568991182      0.14692274123182
  C   -2.50430578229811      0.48808958138891      0.57235727427012
  N   -3.35710302670014      0.21648233311517      1.59280964391882
  C   -1.85905740948062     -0.65325451225576     -0.03288913682866
  C   -2.46988236027946     -1.88735758619575     -0.13887462434052
  C   -1.52226690029720     -2.84053485950562     -0.61173171808309
  C   -0.30199230681896     -2.22690560092169     -0.72346683109417
  C   -0.44693132077447     -0.83772813969013     -0.39935598692816
  C   0.61299413301599      0.04203419267574     -0.27712420096927
  H   4.52716290773362      0.09523325633335      0.52499201643187
  H   4.44850148270217      1.80667363961988      0.69319001206822
  H   2.13338311692348      3.05463505084419      0.01782135233412
  H   -2.17511644423272      3.04066157586796     -1.35889545232698
  H   -3.82566109914504      0.98971820104536      2.03170860668121
  H   -3.24313727433200     -0.63101754498166      2.11537218107053
  H   -3.50795116976345     -2.08594015002331      0.07931577964787
  H   -1.73862238902609     -3.87135710092733     -0.84610115108101
  H   0.61183943051722     -2.68475464085297     -1.05953966493041
