35
Coordinates from ORCA-job ./opt_b97-3c_parallel
  N   4.52363941843889      2.33364365032703     -1.06984549375933
  C   3.58008891082336      1.71447225687042     -0.77477031071876
  C   2.46159312585964      0.97101391359352     -0.41085543306876
  C   2.47268724015850     -0.38716964372742      0.05872281383867
  N   3.60823740437775     -1.09155999667144      0.23412296294203
  C   1.15657268276882     -0.82557818694924      0.26799529626144
  C   0.83237365338011     -2.03141268571410      1.01532111655139
  N   1.69667527355574     -2.28125976690575      2.09229177140097
  C   -0.12439941245293     -2.92611273029028      0.69788995376293
  C   -0.85132940905902     -2.91962712798454     -0.56911152412591
  N   -0.75774639027030     -4.08452474850906     -1.28156097647276
  N   -1.63380039223945     -2.00958205555044     -1.03661615994905
  C   -1.98166478384009     -0.84587054583271     -0.42142040748364
  C   -3.28812997438421     -0.40518106046128     -0.38789064946211
  C   -3.30925463250467      0.94086169592680      0.05524632918784
  N   -4.41329534002699      1.68614421429476      0.25634295410310
  C   -1.98158406682057      1.38946804380436      0.24138354079820
  C   -1.68727939726216      2.60058503448389      0.85056941481978
  N   -1.46496681122456      3.64801006753286      1.32202821530183
  C   -1.10547214736471      0.28030310256130     -0.02058913365885
  C   0.27729732245971      0.26804812071909     -0.02903214236458
  C   1.13755818539241      1.40593877214385     -0.42254624004508
  N   0.73424313049760      2.58846043952011     -0.90645341260182
  H   4.48277437992459     -0.59511635524963      0.24657519708738
  H   3.54970374882941     -1.92669510187577      0.79442592646227
  H   1.89018535044184     -1.45779404238898      2.64369873063952
  H   1.41144560456379     -3.05118920949801      2.67837714321701
  H   -0.27206521515365     -3.79697279164601      1.32736809776239
  H   -1.16555015564051     -4.06253205078215     -2.20248911368583
  H   0.08973405917501     -4.61591917876852     -1.18939820272307
  H   -4.13920173957545     -0.97389896809334     -0.72492825588878
  H   -4.32014706170965      2.58240480369824      0.70341914673532
  H   -5.30232815286306      1.23170290482294      0.35548296044536
  H   -0.14994559518520      2.97655962340543     -0.62595101779440
  H   1.44570590583004      3.26512569649401     -1.12789707771479
