27
Coordinates from ORCA-job ./opt_b97-3c_parallel
  N   -4.65496442602095      0.16823566056377      1.00567793162243
  C   -3.56927198559804      0.50015218072180      0.74869655316742
  C   -2.26443641323678      0.89611416986274      0.44688996381459
  C   -1.81424335486904      2.18260286139660      0.16111202396505
  C   -0.47096647931499      2.18001040479525     -0.24300919308180
  C   0.03506576364203      0.87781717864177     -0.16767902156301
  C   1.36671096336034      0.47551267668263     -0.13210648899711
  C   2.47035800048194      1.36237311962090     -0.33652850519601
  N   2.40881028095615      2.58777461723952     -0.94388745315122
  C   3.61368280761987      0.82853116977232      0.28087162480593
  C   3.28093197202458     -0.38598200872296      0.85857079967913
  C   1.93802717947693     -0.70489235814796      0.56573496977288
  C   1.48859013667554     -1.99409841468409      0.79054901183719
  N   0.51638893371725     -2.70027745857215      0.24026524440769
  C   -0.54269946724007     -2.25185874243781     -0.40080793076536
  N   -0.98202540388980     -2.97578845631035     -1.45280906278105
  N   -1.37644176808791     -1.25951005134335     -0.02889407129665
  C   -1.18348928314067     -0.00065833653117      0.14633035862287
  H   -2.42489309852246      3.06875312567055      0.24998290399259
  H   0.11142290615794      3.07535162469255     -0.36451396163485
  H   1.72647438160960      2.68337049193187     -1.67808413713416
  H   3.29686119012541      2.99343057335602     -1.18688162633037
  H   4.58869728099127      1.29233211302965      0.29054216647088
  H   3.96369241823759     -1.05031219178183      1.36540561146969
  H   2.13915449227738     -2.59049012196123      1.42509963431459
  H   -1.94253464531017     -2.87041928214781     -1.72914087903435
  H   -0.53934879062321     -3.86262208453737     -1.61830753727719
