31
Coordinates from ORCA-job ./opt_b97-3c_parallel
  N   4.76950458529279      1.99432377403042      0.12042188861335
  C   3.78569332774072      1.37336226983298      0.05660502147522
  C   2.61253292393778      0.62496314632211     -0.03525985832621
  C   2.45868258475989     -0.56564231815450     -0.77877940091437
  N   3.46691235370382     -1.12942294598962     -1.47944194460159
  C   1.16058752249148     -1.10405600725064     -0.53082392157136
  C   0.92697940614851     -2.44541261197237     -0.75498384271044
  N   0.06234687794333     -3.28573038354236     -0.21287321811215
  C   -1.06602790991574     -2.94583197698760      0.38564030587197
  N   -1.41015562414981     -3.66304370423904      1.47719645608842
  N   -2.02028018757971     -2.10907958884794     -0.05402704871984
  C   -2.03847968649221     -0.83073374028805     -0.20225518370836
  N   -3.18738528847001     -0.20168479470831     -0.55928237066568
  C   -2.98324488769664      1.08994551624072     -0.32945714530499
  N   -3.92529736482884      2.00295335725061     -0.56077286712666
  C   -1.66058993277307      1.40487978148426      0.16426094414666
  C   -1.24692380199667      2.72861176129263      0.24505959520889
  N   -0.99680445591005      3.86812829928338      0.31261726328285
  C   -0.94715939607518      0.18818626446878      0.14814004318366
  C   0.41391827372212     -0.06826267094061      0.23770742829205
  C   1.39079957755433      0.90942716100778      0.61710739599988
  N   1.24097349859630      1.90897299254962      1.49721664027547
  H   4.29110834168258     -0.57594915299098     -1.63812535059501
  H   3.25433096851893     -1.78967675221963     -2.20386945689364
  H   1.67223392360047     -2.95814866617925     -1.35707151754636
  H   -0.83867496488634     -4.45439457447124      1.71398922322161
  H   -2.37425201702291     -3.67089381382538      1.75811352958388
  H   -3.74164582197578      2.98153652847964     -0.43063080298922
  H   -4.78089154048488      1.71847957329236     -1.00246883118176
  H   0.32712491668830      2.14929625723293      1.83314059529155
  H   1.89697031847974      2.67190817413973      1.48269697093053
