29
Coordinates from ORCA-job ./opt_b97-3c_parallel
  N   -3.09876346262879      3.39138409723122     -1.13419178192604
  C   -2.35966049577196      2.55862171901086     -0.79488567228288
  C   -1.44826901839837      1.56003654712557     -0.36363557493239
  C   -2.05840973877156      0.31525583561128     -0.21599624901102
  C   -1.67291308455233     -0.97573868560186      0.06581897286546
  C   -2.63588631867100     -2.01783230709995      0.22402782042082
  N   -3.97419894825680     -1.91049614946530      0.32859302291572
  N   -2.06974046930099     -3.25762841297970      0.23811202258615
  C   -0.76508418031941     -3.06384906546662      0.08843352715034
  C   -0.40485418482480     -1.69125069214650      0.00003572775649
  C   0.90241118680606     -1.28258344492919     -0.14848294146992
  N   1.90092770658061     -2.17792455604942     -0.31975488089286
  C   3.01466644506860     -1.44486775769424     -0.22603195100652
  N   4.23443806527125     -1.96028950033668     -0.34646545751223
  N   2.85684926550190     -0.10242731923506     -0.00487438841700
  C   1.54094086761104      0.07874490600013      0.02301543722500
  C   1.06853585441184      1.38611249828000      0.29783032058999
  C   2.10675479682439      2.24529866590362      0.74683006517225
  N   2.86506316146598      3.04043762744742      1.12841923393517
  C   -0.15229528564697      2.06705432308864      0.01862110565011
  N   -0.09881221842696      3.40814207813331      0.12376443560314
  H   -3.12646242207384      0.39691392196870     -0.39376592108044
  H   -4.39534810572140     -1.06098318754365      0.65471495111342
  H   -4.47352232709146     -2.76021720712568      0.52555609600022
  H   -0.07039585708365     -3.88757494350068      0.06709810459886
  H   4.35197856317808     -2.93893682277981     -0.53228869267022
  H   5.03555177417762     -1.36081873046867     -0.27363330120978
  H   0.76424024302341      3.87505243171192      0.34577285253883
  H   -0.91598517458049      3.97274031011024     -0.02957139191075
