31
Coordinates from ORCA-job ./opt_b97-3c_parallel
  N   3.76304242421122      2.07116841112852     -1.27310992847462
  C   2.65642377168514      2.00565147940001     -0.90963824923187
  C   1.35648512344531      1.89875365429726     -0.42249446979827
  C   0.46653131199183      2.96062954451186     -0.24095941291980
  N   -0.76915821009991      2.56358266082735      0.08601516275227
  C   -0.78951820851250      1.21272539078255      0.03127568937486
  C   -2.01196142247422      0.57140194281523      0.28938690956251
  C   -2.97692371189452      1.36591830059415      0.95448341423400
  N   -3.84658565730375      1.91416153436486      1.49907180144116
  C   -2.52891378667915     -0.59921606387915     -0.35479086200334
  N   -3.87754644283876     -0.65437950905832     -0.46554398314904
  C   -1.83785609770441     -1.64248544083464     -0.98690468642125
  C   -0.64292303670560     -2.26831771575166     -0.66211494189855
  N   -0.49504375835571     -3.54371698833222     -1.14124800913568
  C   0.42358601202752     -1.82626011590854      0.17522079177357
  C   1.27548070095317     -2.72579711147475      0.82042019183262
  C   2.43060583932946     -2.08300557903081      1.27747571525240
  C   2.38851644010373     -0.75789434990468      0.87522426998212
  N   3.27214671974717      0.18875292443962      1.27192388589889
  C   1.08307701472514     -0.52931041813928      0.19186661843620
  C   0.60026507759284      0.70245829490674     -0.19304355328761
  H   0.68628469981399      4.00732383101812     -0.39216225642202
  H   -4.32547928266518     -1.50923101108993     -0.73526846871232
  H   -4.45729306024161      0.07189893137946     -0.08144439842099
  H   -2.45224901439139     -2.19100541257188     -1.69362049203030
  H   0.43784513850903     -3.88277351096701     -1.29447787671895
  H   -1.19634444373453     -3.91391433429948     -1.75796264353565
  H   1.06917444155284     -3.77798219494652      0.94618383696764
  H   3.21854897521430     -2.53168832003157      1.86158264608421
  H   4.05339115366520     -0.14962607182227      1.80787907260051
  H   3.51570202763357      0.94442275767700      0.65106430896688
