27
Coordinates from ORCA-job ./opt_b97-3c_parallel
  N   5.29979482929580      1.61446617092496     -0.05932581323316
  C   4.22813189852772      1.16654488928882     -0.09881897775829
  C   2.93669234632457      0.61335575185920     -0.15070490613925
  C   2.62592429977236     -0.71855382662336     -0.54389798769844
  C   1.25836486225855     -0.92409573072226     -0.42875162816253
  C   0.70885131336709     -2.17083653104544     -0.80458654346896
  C   -0.47594691430707     -2.80488996061254     -0.61770163356933
  C   -1.64452848939323     -2.43774670726868      0.13232393612057
  N   -2.34057860073853     -3.51453849745396      0.62326232609840
  N   -2.22940695699038     -1.29319702766700      0.34138917347856
  C   -1.95048854306168     -0.01380046630129      0.12702034393388
  C   -2.93750526500303      0.94839703997531      0.09706000102818
  C   -2.27268685022682      2.19854315379480      0.11168959272586
  N   -2.84025300077559      3.40684416027738      0.11923906460313
  N   -0.92598537294926      2.09711254332287      0.13868487295765
  C   -0.64150270853320      0.78421439698825      0.09651393494757
  C   0.67683276888624      0.35423270586729      0.01278909051213
  C   1.75195925979458      1.26613570669684      0.15896872646427
  H   3.34411507958931     -1.45207679399919     -0.87365076888861
  H   1.43854565425192     -2.78967015334341     -1.31767774699778
  H   -0.51881781250124     -3.81747485186366     -1.00092132249957
  H   -3.11029379533697     -3.28982368907117      1.23065275709062
  H   -1.83778257172693     -4.35778222380612      0.83453724785985
  H   -3.99647598339187      0.76371270322494      0.15621389021603
  H   -2.24812679824115      4.21856274278152      0.10170845126679
  H   -3.82844151253842      3.52584699891223      0.00298840447232
  H   1.64376534365029      2.29442593546247      0.45341199184171
