30
Coordinates from ORCA-job ./opt_b97-3c_parallel
  N   -2.46331909297081     -3.44242593962462      1.84419262662718
  C   -1.86876541949498     -2.61756867742839      1.27779817623090
  C   -1.17059118088594     -1.61904790685875      0.55496344204545
  C   0.17187647170267     -1.82500229204507      0.40224517877749
  C   1.21468013568548     -1.04524578565289     -0.13263484077768
  C   2.50010563336049     -1.60542506645055     -0.42478889419128
  N   2.77991724033383     -2.90073227322140     -0.55910398035122
  N   3.50145030380310     -0.69517110507633     -0.53666180394405
  C   2.92750705354539      0.47520314076384     -0.27669405757605
  N   3.56896261711057      1.62349229383444     -0.25692441515109
  C   1.45263807682591      0.35363462601189     -0.04648327858309
  C   0.65305082995326      1.42249355092995      0.26070866675830
  N   1.24483434903239      2.65154800619534      0.59162354187351
  C   0.25258404612708      3.49371253582486      0.77797513035084
  C   -1.02108829222999      2.89088636028536      0.55676054490351
  C   -0.79797260013876      1.57133096163901      0.23690719211640
  C   -1.83864472915387      0.70605981799498     -0.29408731464933
  C   -2.85540885630524      1.38595475680964     -1.00251707623352
  N   -3.72745532496821      1.89515451485330     -1.58250356983392
  C   -2.04013810330152     -0.64962083815038     -0.14278970341569
  N   -3.14072406928216     -1.23222745289491     -0.68413621676117
  H   0.50343161654096     -2.77444149135489      0.81712453200949
  H   3.72375761372753     -3.17204341265168     -0.77031946649512
  H   2.05498273654431     -3.58830516886437     -0.64249061188987
  H   3.02403684153990      2.42792271624072      0.07632641910030
  H   4.56919699289113      1.63587977435857     -0.36438738427478
  H   0.43798960227624      4.51756045394351      1.07155679887225
  H   -1.97777478312426      3.38584682658490      0.59099730234784
  H   -3.38698469421319     -2.16750321245962     -0.41477500498812
  H   -3.88597217340387     -0.65529480917097     -1.03748701252221
