26
Coordinates from ORCA-job ./opt_b97-3c_parallel
  N   4.33011100658546     -0.65101434733484      0.39625757481074
  C   3.08569321544888     -0.18660492478668      0.20402944028825
  C   2.70549474467080      1.15139827545572     -0.04968985569204
  C   1.32258001200405      1.15930092833785     -0.10850066714266
  C   0.58760147660740      2.32723281101154     -0.32289556049565
  C   -0.74594757937057      2.67077954179956     -0.23278523482831
  C   -1.95153687406040      2.03876339665613      0.04469561265767
  C   -2.39280667508134      0.71694466280811      0.11664299846720
  N   -3.73624071386710      0.58085159684220      0.37379965068651
  C   -1.70802663782441     -0.50588029036233     -0.13870750074238
  C   -2.39743534286193     -1.69541577308794     -0.36773750512652
  N   -1.57848876430026     -2.78248125819684     -0.46034596601628
  C   -0.35080068874401     -2.33562146655820     -0.24470501979590
  C   -0.30042376970814     -0.91878671674726     -0.06490749336250
  C   0.92804455502560     -0.28307536097764      0.08452420444659
  N   2.03736709799101     -1.02831446896315      0.27995083519724
  H   4.45898668954212     -1.64524512799484      0.46001143979934
  H   5.13020472738208     -0.08164599810985      0.19689209472934
  H   3.35451272052104      2.00682241938867     -0.14602423498415
  H   1.22730507294879      3.18029875386305     -0.52351210317335
  H   -0.88695188136176      3.74099637394704     -0.34776355758412
  H   -2.75563073061703      2.75319490900485      0.19327129163662
  H   -4.23873111769740      1.39711754721501      0.67202944168280
  H   -4.04510501920368     -0.27708590739448      0.79243129561672
  H   -3.45660490184754     -1.81363904960414     -0.53827276084235
  H   0.50955943681834     -2.98270437401152     -0.27302718063281
