30
Coordinates from ORCA-job ./opt_b97-3c_parallel
  N   3.55545437805100     -2.43791390463521     -1.41190245989147
  C   2.61221238914385     -2.07622156870919     -0.83577324097734
  C   1.47370682487278     -1.61511430502776     -0.12426363912476
  C   0.55267669307727     -2.56701983869144      0.20402800391906
  N   -0.50521923134857     -2.52041325339352      1.03862793063813
  C   -1.51153796730678     -1.71540614531639      1.03162462794066
  C   -1.80822801386396     -0.59503120284614      0.20653168872414
  C   -3.13731213485254     -0.19711888137700     -0.03451453430075
  N   -4.24013423565580     -0.93004441894230      0.25517136886821
  C   -3.17805782257452      1.11491144409235     -0.58159496406566
  C   -1.89072395180786      1.58580699088152     -0.62764151172697
  N   -1.48440105961950      2.78084783274364     -1.13525289286546
  C   -0.97140433303562      0.54589721969877     -0.10698652450815
  C   0.36193797352666      0.78010751399295      0.13915689837904
  C   0.95682398052395      2.08065799324339      0.29948157170531
  C   2.30810661962850      1.91679287584343      0.49173859147029
  N   3.25385211420843      2.87166182693511      0.72559058261265
  C   2.62531576405736      0.50958909674910      0.37982088111003
  C   1.47487608926901     -0.20245610502951      0.22116002688988
  H   0.75290948017605     -3.57053492521175     -0.16143455432309
  H   -2.27133862730098     -1.95673045939551      1.77920476122911
  H   -5.13086781056051     -0.61037277055989     -0.07813881046349
  H   -4.14950826232870     -1.92633496993991      0.33748002369537
  H   -4.05987359590538      1.61834526241536     -0.94737377616546
  H   -0.51469288545100      2.84691012820843     -1.40047587869986
  H   -2.11988802624196      3.24210812667522     -1.76352174740784
  H   0.41060103881410      2.99049884484201      0.48455393858709
  H   4.10322740712927      2.57648758037056      1.17466554506675
  H   2.93407703630416      3.77897432512750      1.01729963569920
  H   3.62333201917127      0.09847805115610      0.37504813498525
