27
Coordinates from ORCA-job ./opt_b97-3c_parallel
  N   -4.56196924534105      0.92897860085659      0.73482703319344
  C   -3.48399051150203      0.52960518373764      0.54299823297883
  C   -2.23428166676021     -0.05148104041465      0.34454311409688
  C   -2.01676833549032     -1.45017903771644      0.28676073986541
  N   -2.94612568675580     -2.36293642442960      0.57664097278318
  C   -0.67915042564489     -1.72583833193431     -0.08974759025427
  C   0.01708630787030     -0.52993021275101     -0.19958691288150
  C   1.40670350254753     -0.35849326655041     -0.22036420553634
  C   2.32907255571948     -1.43542337271329     -0.30604005665824
  N   2.05629362303090     -2.69881483670400     -0.76795967243018
  C   3.56153424713945     -1.04608666283787      0.26358341196484
  C   3.44679034462700      0.25172623708091      0.71626700984405
  C   2.16946689418660      0.76265780806061      0.37453926379682
  C   1.92997601010290      2.11876280906883      0.48083684726879
  N   1.12403026354896      2.90151344206905     -0.22538194675424
  C   -0.01465557610715      2.64113614330519     -0.79870800836301
  N   -0.99017229531757      1.81218268232978     -0.45484225244015
  C   -1.03469495150517      0.57863210318509     -0.06210845984466
  H   -3.87559660738454     -2.07672841468797      0.83214475264247
  H   -2.78074861169367     -3.34023519620401      0.42549194644198
  H   -0.23983066555436     -2.70730672055494     -0.03094803314170
  H   1.36500578736347     -2.75251663421382     -1.49898949969584
  H   2.86684431358830     -3.25987367849193     -0.97114129524859
  H   4.44096665981055     -1.66981357283612      0.32556215258792
  H   4.23460413191235      0.84031148193451      1.16007658888270
  H   2.63601030790261      2.66624181020923      1.10001099350653
  H   -0.29070102789414      3.32694372880497     -1.59757844160463
