30
Coordinates from ORCA-job ./opt_b97-3c_parallel
  N   -4.14781694798591      0.77807169411464      0.95887909253213
  C   -3.32290317258734     -0.01416075844778      0.72298861858634
  C   -2.32101945123583     -0.91502147041346      0.37205319809604
  C   -2.41676122954533     -2.30620939716541      0.41252091555154
  N   -1.26404439374010     -2.92443512466464      0.07622949739501
  C   -0.34632202513015     -1.96700104991597     -0.10588937475309
  N   0.82755126749982     -2.27846433657577     -0.70921995964563
  C   2.00253862590518     -1.88437613171651     -0.36812352498902
  N   3.05815567987949     -2.38146356451832     -1.07570281933484
  C   2.38951589176176     -1.04888356421755      0.77873566726284
  C   2.02384894796031      0.23571221699030      0.91540046415897
  N   2.64829858098460      1.07302454088366      1.85439990719124
  C   1.04522489226750      0.92060765060838      0.07937399353524
  C   1.17349671839393      2.25872526835170     -0.38112905649457
  N   2.27399941542275      3.01476506509927     -0.33465625802956
  N   0.02512202338599      2.77140746564790     -0.91015402681507
  C   -0.88583401233783      1.82339657523339     -0.74500316961658
  N   -2.11760656953632      1.95809127985568     -1.22021456659972
  C   -0.30293324307116      0.57967572756954     -0.12822927487119
  C   -0.93985389847269     -0.63366603836321      0.08238036885190
  H   -3.28720827331308     -2.87372864176775      0.70547647382374
  H   3.91916484812017     -1.86557473572091     -1.07375162720349
  H   2.83265497511064     -2.88713204799453     -1.91681070237090
  H   3.11142742099865     -1.48278925145140      1.46198745692841
  H   3.24222551988026      0.58004558014701      2.50468830752676
  H   1.99488686433343      1.66406116859374      2.34935435798751
  H   2.18377580276136      3.99264089057975     -0.54970063728316
  H   3.03821090758879      2.71001602868714      0.24673728370588
  H   -2.87691519160737      1.39556492149825     -0.86846303080180
  H   -2.35941394259145      2.85766692737287     -1.60153742712496
