31
Coordinates from ORCA-job ./opt_b97-3c_parallel
  N   4.66247088465620     -1.51852216950042     -0.99691527941938
  C   3.64210104858359     -1.03431347911468     -0.71098232682585
  C   2.46210720916085     -0.36456199898067     -0.39422660373327
  C   1.22955959783629     -0.94024387053102      0.03422608939523
  N   1.14686973026985     -2.19710329583509      0.31654417905294
  C   0.19804726273823     -3.08110327635261      0.61668309089069
  C   -1.09989331403493     -3.19718391327896      0.19887633629042
  C   -1.97426314093020     -2.23750864771876     -0.35025957902419
  C   -2.00195533155864     -0.87964969407465     -0.24543148584509
  C   -3.22335613762285     -0.15846951172736     -0.52469157703685
  N   -4.28606519374634     -0.66438119320245     -1.21069395659334
  C   -3.21134089954919      1.04530754660250      0.16499522677845
  C   -1.96007267740894      1.20169035790061      0.78633442179581
  N   -1.66229012704211      2.19040916284850      1.65684968796677
  C   -1.10830952860405      0.10757866864495      0.43680105520666
  C   0.26193147368811      0.20964962824675      0.27318477897462
  C   1.03772676423135      1.39219723928715      0.13140575173219
  C   0.63132542699330      2.71817531329874      0.02488803004521
  N   0.37156053597444      3.85326452121498     -0.07045002302870
  C   2.35535333374607      1.02980216905201     -0.30397522664134
  N   3.31492739311861      1.90493344795946     -0.59728742864783
  H   0.59107717611435     -3.93351934385939      1.16642969933887
  H   -1.53515920746843     -4.17992270452231      0.33754878350639
  H   -2.87645239013340     -2.67324026636109     -0.76756107780154
  H   -5.03010632546784     -0.02363098333283     -1.42321617925494
  H   -4.08819226687996     -1.30311927869355     -1.96050280044601
  H   -4.04040173229742      1.73142994674983      0.25205887398250
  H   -2.12301706945381      3.07741723042979      1.54366943774353
  H   -0.70858507298211      2.27826253238069      1.95846057358752
  H   4.19178755541882      1.59061676601857     -0.97412181334142
  H   3.14833830975256      2.89370332875025     -0.53216306934878
