29
Coordinates from ORCA-job ./opt_b97-3c_parallel
  N   -0.14994519204495      3.20099782972673     -0.28070876742462
  C   0.62561996835761      2.09593215145257     -0.18894062505631
  C   1.97710492517777      2.01075167821206     -0.35896817562048
  C   2.33329894193437      0.62760604546657     -0.25948630476806
  N   3.59922576447194      0.17740360221632     -0.35470573543251
  C   1.18400968803451     -0.17282925470724     -0.09136029143925
  C   1.23584438055085     -1.56972317684831      0.32241106530019
  N   2.30253096135033     -1.87175546507514      1.19075152222460
  N   0.51841917378018     -2.56111731422997     -0.04693209711500
  C   -0.49497268931600     -2.55941163540249     -0.96913348160269
  C   -1.62499275338190     -1.82573602132625     -1.01433048362214
  C   -2.04267601173590     -0.71280091461517     -0.20253317570249
  C   -3.36180319901732     -0.41967920704731      0.05511327255320
  C   -3.45968736548297      0.84989797136767      0.71373515518527
  C   -2.21360869468626      1.40650390202182      0.78452345608532
  C   -1.26428165765586      0.46207616504262      0.22726423753541
  C   0.07242056075074      0.71172105855823      0.00769786358596
  H   -1.13599679527051      3.05933045609670     -0.42645653962430
  H   0.24112529534974      4.01311859090379     -0.72478901957828
  H   2.65164554281333      2.81439795251553     -0.60977494334671
  H   3.76769521768069     -0.77407967285673     -0.05953261286167
  H   4.35443436432842      0.82889266082647     -0.23651198159067
  H   2.39596303972825     -1.21710844712321      1.95401391939981
  H   2.23164502293425     -2.82351669345069      1.52157318993915
  H   -0.42621716492730     -3.39373544749303     -1.66173286702738
  H   -2.36404445688970     -2.17011212205538     -1.73006280217481
  H   -4.19626104708891     -1.04815024747791     -0.21879312846303
  H   -4.36695401471401      1.27407358627958      1.11791391467876
  H   -1.94936408213120      2.29099184052223      1.34166302206273
