31
Coordinates from ORCA-job ./opt_b97-3c_parallel
  N   4.08367305460854      2.94704880533852     -0.79985797755208
  C   3.19782321840338      2.22491364322891     -0.58331500480171
  C   2.20175264763174      1.27763285707316     -0.31341388865829
  C   0.84314918304612      1.45161803648108     -0.27836583521951
  C   0.21699234425031      0.17230977690898     -0.07079337913601
  C   -1.16145805521069      0.03885150852712     -0.04820735155742
  C   -2.07888395692613      1.10780852231405      0.19669488501543
  C   -1.85129140682579      2.38131227479212      0.71401057939207
  N   -1.76237202290895      3.46343294538315      1.13987363980387
  C   -3.38054250359225      0.63377924055919     -0.05527830310785
  N   -4.50584670750980      1.34584948729200      0.08798773850701
  C   -3.30026437641267     -0.71961366826548     -0.48949710630341
  C   -1.98887883167010     -1.13534578531518     -0.46140566728177
  C   -1.59295124838409     -2.39577958816750     -0.98249009334873
  C   -0.51834770138476     -3.19242377470790     -0.72437169192152
  N   0.44223891529034     -3.12990435018591      0.21160574743451
  C   1.18366763488612     -2.15237785999772      0.60807591334227
  N   2.09438596423129     -2.45892930050420      1.59856715240712
  C   1.28555111494613     -0.80482631355103      0.07895220933524
  C   2.49062483224210     -0.12134436027947     -0.03559692249886
  N   3.75769313486311     -0.57017387439799      0.14265694207265
  H   0.32994811123113      2.37152388940123     -0.49083582066395
  H   -4.46804082137249      2.27233742973459      0.47767111594459
  H   -5.40466285124441      0.90591386020349      0.02746729035015
  H   -4.13819001810533     -1.31977289322132     -0.80817259785776
  H   -2.32288989270011     -2.84419224725236     -1.64701186491826
  H   -0.50520053189836     -4.13482909274648     -1.26653172773573
  H   2.35623576406707     -1.71429857668066      2.22240644954955
  H   1.94473247888043     -3.35394093112837      2.03602954466630
  H   3.91609771477010     -1.56179744242709      0.16757283985380
  H   4.51266239099815     -0.00570911860882     -0.20725746121180
