30
Coordinates from ORCA-job ./opt_b97-3c_parallel
  N   -2.63234454061933     -3.89372042471232     -0.83852963509306
  C   -2.06473339148813     -2.94497973867694     -0.47153815864652
  C   -1.40510669448634     -1.77026960812024     -0.05331067836124
  C   -0.29339609339228     -2.01167203383198      0.82747828368655
  N   0.85237724186632     -1.44532018429452      0.94265068777300
  C   1.41756896764605     -0.40326319237503      0.31137048261413
  C   2.76903005265429     -0.35305063882597      0.01692579504514
  C   3.74365257992193     -1.33660405947366      0.18019293618291
  N   4.62025764617334     -2.09506657445445      0.28632095627689
  C   3.03336747496168      1.02099489302147     -0.38405948415301
  N   4.23723525440176      1.46706587609628     -0.75387419205782
  N   1.95630812250038      1.78383019061083     -0.33894676368620
  C   0.91358857781830      0.96120128914875      0.01466126501999
  C   -0.37619787848966      1.43032630542463      0.08475765930158
  C   -0.61854543766015      2.84814798314332      0.19266761275107
  C   -1.94674304133045      3.05657156909471      0.37114862281021
  C   -2.62263801558386      1.78868840530768      0.28056020394678
  N   -3.98273197457734      1.69634091748148      0.33308124532491
  C   -1.67607047464762      0.76537630395073      0.09313816316791
  C   -2.03647832436074     -0.55495901024642     -0.34641959758163
  N   -3.22723369779380     -0.62850089646088     -1.01698492878292
  H   -0.41563541926096     -2.88880278007812      1.46150870430803
  H   4.36532990252976      2.44625355916115     -0.93441205151689
  H   5.04064688437965      0.86636157503520     -0.72888290892378
  H   0.17224922937079      3.57697452200470      0.21725127919866
  H   -2.43785602095768      3.99903231095655      0.56141936886791
  H   -4.46827432582210      2.46476462640560      0.76187481969279
  H   -4.38373139379089      0.79230009180766      0.51926354287603
  H   -3.51710572385080      0.17899528225060     -1.53902621699627
  H   -3.49757674981314     -1.51530150635218     -1.41036437474379
