28
Coordinates from ORCA-job ./opt_b97-3c_parallel
  N   -4.90110825932688      0.04759726680201      0.90881529297200
  C   -3.83778574399068      0.42054854088839      0.61198714796646
  C   -2.54603041927079      0.80979239094250      0.26052226063140
  C   -2.11829796991370      2.04922863455092     -0.20155133243664
  N   -0.82508336952615      2.07790727491867     -0.56901156837094
  C   -0.31726224483760      0.82756272772241     -0.33642963778567
  C   1.03993583574434      0.60656066037302     -0.30806091366973
  C   1.99932385042812      1.68184131401566     -0.36076710478448
  N   1.72505677312413      2.93019330771516     -0.71490273993238
  N   3.23522124915814      1.30679992012646      0.04502130771659
  C   3.14874863339015      0.01385539403470      0.36764614475383
  N   4.25024548925028     -0.64333256303090      0.77994115431895
  C   1.83486283949321     -0.54480690411805      0.13324181888540
  C   1.59902967841023     -1.88698978575979      0.14759572084722
  N   0.61590928675229     -2.63729925966403     -0.36148330240366
  C   -0.66617084892847     -2.45084616696089     -0.39805706016924
  N   -1.38039194557562     -3.40539691920201     -1.05092504543143
  C   -1.51823766835060     -1.43085118927251      0.20554270671292
  C   -1.42394691916552     -0.08287753986324      0.10048394619899
  H   -2.72984501167242      2.93614789695399     -0.28465142982168
  H   0.73039944744642      3.14536441124740     -0.81459002169721
  H   2.41565202658216      3.64224412537772     -0.55130603017054
  H   4.16095426914550     -1.49806941649990      1.29624832624817
  H   5.04961054994306     -0.07412881837620      0.99711899890767
  H   2.41840602385703     -2.50357514083627      0.51348997562657
  H   -2.32988686902499     -3.22302229047657     -1.31992193950425
  H   -0.86463695687264     -4.08638093065578     -1.58171570301648
  H   -2.48612994896731     -1.80583648595243      0.52099998420800
