31
Coordinates from ORCA-job ./opt_b97-3c_parallel
  N   -3.22932857230049     -4.54268685278158     -0.62584467930378
  C   -2.47538740306626     -3.67535203608978     -0.45764319800921
  C   -1.55539151053368     -2.63094153920920     -0.25514874635947
  C   -0.19332770730460     -2.78625910549374      0.02882021244295
  C   0.41282586790203     -1.51779645381550      0.08784748943844
  C   1.78096157422050     -1.47524145883315      0.32040603312666
  C   2.81208497529611     -0.54812249043065      0.26078598509834
  C   4.08063689527660     -1.10588507733892      0.57663279591618
  N   5.13737868971118     -1.52326871684404      0.82424222452782
  C   2.85678189024543      0.82041264925754     -0.16073447802392
  N   4.10459513939201      1.31397004557123     -0.39886902670580
  C   1.82873032351600      1.75126208167400     -0.34970026442080
  C   0.46026006104744      1.85708558960006     -0.16209251287937
  C   -0.11400957357060      3.13812019418080     -0.18051127296398
  C   -1.47587431660873      3.03621701073297      0.07690196596896
  N   -2.36643324403431      4.02200594704943      0.20866028068335
  C   -1.81793525345262      1.64338776662534      0.21083520773951
  C   -3.12777882325567      1.27438580733901      0.51427605453306
  N   -4.25124288962253      1.10817541154286      0.77682788029397
  C   -0.66419576950980      0.87113394335362      0.02748431203840
  C   -0.66459629573010     -0.52450128410962     -0.10387974210297
  C   -1.84192555504594     -1.25858233280253     -0.32034197431036
  H   0.32086815909350     -3.72622693394566      0.14395767467398
  H   2.16001162832740     -2.45870246188519      0.57399107034712
  H   4.23942160583803      2.30051143524758     -0.51356393159449
  H   4.92262719633902      0.76878650791240     -0.19039694859604
  H   2.23864714606450      2.71923821883886     -0.62220351876670
  H   0.43544681978859      4.05750809572610     -0.30138705570418
  H   -2.09735819484991      4.98481372528974      0.13303520752969
  H   -3.32619825028591      3.81729463156996      0.42892789858971
  H   -2.81516021838687     -0.85489430503237     -0.52994566950673
