27
Coordinates from ORCA-job ./opt_b97-3c_parallel
  N   5.33516472469297     -0.30993869846278      0.45966579945711
  C   4.18443022518843     -0.26647751277168      0.31647178774105
  C   2.76648519443140     -0.23355081108698      0.14747951582134
  C   2.17727000345784     -1.51194368876364      0.13727787668674
  C   0.90606784472202     -1.99619145100202     -0.01246674727782
  C   0.72553187990264     -3.40312894238925     -0.11738687293783
  N   -0.54080190789598     -3.74827513515664     -0.32009029140914
  C   -1.25686183791160     -2.59750319271999     -0.31072371450744
  C   -0.46731676950664     -1.45244625983530     -0.12625939971080
  C   -0.99482541627953     -0.16167383738242     -0.00305597029731
  C   -2.35895151861749      0.14007249391573      0.10978113767301
  C   -3.48208933906525     -0.66994742437135      0.27735793629064
  N   -4.48787843007850     -1.23776145447886      0.42392215134695
  C   -2.46686233754231      1.56410381496586      0.06387301754224
  N   -3.58406184897439      2.26793919400912      0.14585241280255
  N   -1.26957462572040      2.16403218408866     -0.06259352375468
  C   -0.34196506285533      1.19749726804047     -0.07685767008058
  C   0.99440561494750      1.64210560515302     -0.16306555610053
  C   1.10308296908613      3.05933900884810     -0.34273590477681
  N   1.29329449324171      4.19221789381437     -0.50171099298341
  C   2.25410262948084      1.04657972686991     -0.03040646922759
  H   2.91289766358869     -2.30266197538105      0.23349335215555
  H   1.51476112058661     -4.13984181909897     -0.07141571726927
  H   -2.32151674698562     -2.63390447901497     -0.46262695306392
  H   -4.47778709546251      1.82049776524195      0.25607771594740
  H   -3.53683661763621      3.27206003310201      0.11398390528546
  H   3.03921601840525      1.79080504726665     -0.05699312925296
