32
Coordinates from ORCA-job ./opt_b97-3c_parallel
  N   -5.17100537243266      2.03223703098678      0.42536479804353
  C   -4.22246673016660      1.38465096800357      0.23447864056027
  C   -3.04509722528938      0.66197433783711      0.01422675625682
  C   -2.92323518282249     -0.72340793154960     -0.17106490385924
  C   -1.57271723021602     -1.07092761664984     -0.21398029331596
  C   -1.20992788468973     -2.42414713047378     -0.41009390090137
  N   -2.17423021786163     -3.22240211645570     -0.96039220202710
  C   -0.07463744322860     -3.13412274584144      0.03709106031940
  C   1.12960258237894     -2.78939652287373      0.59583586735765
  C   1.89641779931078     -1.62799317739020      0.70867277978762
  C   1.76110583554510     -0.33778277614480      0.24587768213076
  C   2.88718161795163      0.52170548338777      0.17116585928014
  C   4.20912942644989      0.22043058484864      0.48770799850760
  N   5.33013119316264      0.02065801825510      0.74025770647690
  C   2.47572029065016      1.74848000419143     -0.40681099062122
  N   3.29765497687403      2.76614023262169     -0.69619742246981
  C   1.08455182333177      1.70858621297142     -0.61927822271525
  C   0.58286049034476      0.46956895613485     -0.22050077228944
  C   -0.79188372502130      0.18831457975174     -0.10833227967995
  C   -1.75322420129687      1.23102645201906      0.02510764062871
  N   -1.53298769539888      2.58113000290644      0.17014812485627
  H   -3.75497326765066     -1.40619201195136     -0.15152459166630
  H   -2.86870978227475     -2.80559969491784     -1.55098812917872
  H   -1.96451743059094     -4.18630013852535     -1.14186115019290
  H   -0.20552022037948     -4.20916004087072     -0.03565494155621
  H   1.67457579598367     -3.65979902389000      0.94539276411567
  H   2.87851251389928     -1.82118460911109      1.12572932589968
  H   4.29155324795967      2.65771208479041     -0.59280145006599
  H   2.97018933249243      3.56135602680184     -1.21169400489077
  H   0.51835859549133      2.48797300170129     -1.09871664860062
  H   -2.30551617286025      3.07264909551331      0.59455597250004
  H   -0.65013079214636      2.82026959462370      0.59673831320954
