32
Coordinates from ORCA-job ./opt_b97-3c_parallel
  N   5.47543937238629      0.36941825391363     -0.43974419218683
  C   4.35034045828719      0.12598854003028     -0.26744404025074
  C   3.03326870946655     -0.26422678649534     -0.02471099577917
  C   2.63603630902824     -1.57745763919198      0.44207254999035
  N   3.50253475762377     -2.53131494473779      0.82489093294633
  N   1.32489036761182     -1.72117555615691      0.46557549859564
  C   0.78180243176309     -0.49564329845575      0.08871159040098
  C   -0.57735575102884     -0.28658632395681      0.07279042777153
  C   -1.52163630826009     -1.42420648646308      0.01248053853980
  N   -1.15609203744984     -2.69711132556767      0.08267265176493
  C   -2.79826652245438     -0.91605478974733     -0.19895700013469
  C   -3.96663756897619     -1.64807024008168     -0.38467125605912
  N   -4.95434956101867     -2.25030608095773     -0.53362089003282
  C   -2.70507121287358      0.52046230674095     -0.15063722103846
  N   -3.78219833076718      1.30330353966096     -0.31206982365587
  C   -1.36629411237911      0.91595420017049      0.04520615103439
  C   -0.99393778527674      2.25121211874259      0.46691119082517
  N   -2.00714082559883      2.91155148869160      1.17718968062590
  C   0.12984862742655      2.96360158915759      0.17390434374846
  C   1.15667735758351      2.65591699538444     -0.77128231106637
  N   1.85947429298884      1.59961627036401     -0.96804996235246
  C   1.85869704306620      0.42818872902873     -0.28509845228364
  H   3.16156299568662     -3.46683935899972      0.95381071767660
  H   4.47954163582721     -2.41793271175854      0.62205660512564
  H   -1.82740607503079     -3.43416325937592     -0.04229714926151
  H   -0.17465621352364     -2.88159151675186      0.28279384410781
  H   -4.69916863022327      0.89376946579860     -0.34158793029181
  H   -3.69819470805760      2.29148171497380     -0.14313666780057
  H   -1.72188878570207      3.79439638207138      1.57084294109930
  H   -2.45609990229832      2.33207160633900      1.87067083839715
  H   0.14277617650453      3.99603797516756      0.51084968533465
  H   1.43002468756942      3.48836278676194     -1.42261886349131
