30
Coordinates from ORCA-job ./opt_b97-3c_parallel
  N   -2.65091545316351     -4.12003828121819      0.48613013635462
  C   -2.09102779041621     -3.11154822562837      0.33729037766895
  C   -1.43078170165052     -1.87029630567218      0.13343003733900
  C   -0.05756956888001     -1.95509145033511      0.30958467908775
  C   1.04611527532521     -1.12109822942707      0.19067399136510
  C   2.32143148864189     -1.68511636214770      0.14169613148735
  C   3.29226700628824     -0.68010848829113     -0.01877650027981
  C   4.67133936781897     -0.83792011446617     -0.20068434329875
  N   5.82154188569451     -0.89969954225467     -0.36266325863256
  C   2.64355358906495      0.56932949275527     -0.00559101884211
  N   3.26691178776556      1.75673153131910     -0.13707181663654
  C   1.22541850266577      0.34456745548253      0.17244003871655
  C   0.33025914972833      1.34006341355876      0.48095559749323
  C   0.66543111985652      2.64361916080964      0.92735510463052
  C   -0.51243751209150      3.34841967704055      1.00434710674542
  N   -1.59187108291918      2.64800923204997      0.55735645570930
  C   -1.17784441174588      1.41470483971031      0.27522431916654
  C   -2.10613891584528      0.57485887511669     -0.38156513696883
  C   -3.19221310095031      1.29459971206617     -0.94769546747417
  N   -4.12113136640609      1.75002237436438     -1.47849253725828
  C   -2.28183963634812     -0.83612876478837     -0.40516986098501
  N   -3.42817950171652     -1.28098645472343     -0.94869725495115
  H   0.24438520505558     -2.97117077990320      0.53740828489776
  H   2.53339355685830     -2.74109275727080      0.18418190064658
  H   4.22018930719990      1.74815348713007     -0.46138188934980
  H   2.72041443579662      2.55674546772621     -0.40816081656611
  H   1.61782327864966      2.95234302708775      1.32098512784661
  H   -0.65190231731756      4.34213926346802      1.40484646605704
  H   -3.64849848030402     -2.26185713864882     -0.95607759984208
  H   -4.13622347755621     -0.63677622551071     -1.26055228902694
