28
Coordinates from ORCA-job ./opt_b97-3c_parallel
  N   4.61347051879003     -0.89322734923062      1.00018176303511
  C   3.57502051332412     -0.56899394113627      0.59469577497398
  C   2.34485633031879     -0.04193761545654      0.10972222326577
  C   2.48074311562254      1.23232289187989     -0.48819130761075
  C   1.63621533514699      2.20381292966749     -0.94181190195478
  C   0.28244823284374      2.50125881664897     -0.65384776501356
  N   -0.10698168955008      3.73040091558423     -1.05868288445496
  C   -0.67099409375597      1.75149325903954      0.07288088098170
  C   -1.76847907390104      2.35219145264516      0.68897381527948
  N   -2.69577309189150      1.48300846667556      1.12370745775847
  C   -2.29499053334569      0.26471650620229      0.73846766102213
  N   -2.99248971719124     -0.80534453706495      1.15486347364450
  C   -0.96418373515541      0.31290764881557      0.09599496843574
  C   -0.18638351395889     -0.78797509823653     -0.19590210540211
  C   -0.64010134412905     -2.13685339677202     -0.35750730965040
  C   -1.87304215604417     -2.57357201702971     -0.83380469062590
  N   -2.92680283914015     -2.91485128038446     -1.19895289235990
  C   0.47429037937383     -2.95452612194873     -0.13104003600436
  N   1.58468212231266     -2.26718366669585      0.15115567329640
  C   1.28746264922507     -0.95389120756384      0.02906115016330
  H   3.52241061185731      1.46973985254850     -0.67389415283750
  H   2.13830675088980      2.97715416260657     -1.51229446550949
  H   0.54616322328095      4.37427299276226     -1.46620296214102
  H   -1.07269603583974      3.99862305641008     -1.04054726890659
  H   -1.90903673788395      3.40898856156497      0.86669116571879
  H   -3.83284021705310     -0.56949863453574      1.65748002077220
  H   -3.04617951810963     -1.64505158251436      0.60083177634111
  H   0.49707792116379     -4.03133967918169     -0.21237201491770
