25
Coordinates from ORCA-job ./opt_b97-3c_parallel
  N   0.65599215779874      5.04465451766167      0.34059475096183
  C   0.54418717259951      3.89923083705134      0.18913614688672
  C   0.43049171131487      2.49327621215645     -0.00165484468154
  C   1.63108223327373      1.89256363965111     -0.50682929716384
  N   2.08799244077680      0.69294623376863     -0.43958616619100
  C   1.68029169092328     -0.52453899403646     -0.14187387651091
  C   2.56051754448779     -1.56185233673679      0.17582158515801
  C   3.94368134789491     -1.46374627252028      0.35624886972580
  N   5.09389238083219     -1.40420813817726      0.51009433420202
  C   1.78606654193638     -2.76197166340618      0.14297065619417
  N   0.51204263223015     -2.56357586606429     -0.13632522311321
  C   0.33705929811267     -1.20717528013898     -0.22957270799799
  C   -0.92980031219296     -0.67996393328062     -0.19614772843236
  C   -2.07423204064772     -1.52589037212897     -0.22471582446737
  C   -3.20169143320179     -0.75110689470979     -0.03965301122203
  C   -4.53222618882014     -1.20836703346113     -0.02922560248292
  N   -5.63434574414542     -1.57256990396235     -0.01759064965920
  C   -2.80223439444950      0.60708754399838      0.15244787864219
  C   -1.42620147582243      0.70831138703922      0.04118174362547
  C   -0.82462345313465      1.96300332040168      0.21669047412792
  H   2.31602909805063      2.60195031542811     -0.96569943297518
  H   2.17662127550379     -3.75811261851077      0.29446635371693
  H   -2.03584899086549     -2.59099764053136     -0.36351217815033
  H   -3.47583202980451      1.42418637102050      0.35290992080667
  H   -1.54610740535147      2.71341954848796      0.51806847270010
