26
Coordinates from ORCA-job ./opt_b97-3c_parallel
  N   4.39311832249066     -0.06203105894053     -0.70093892371803
  C   3.24146164711827     -0.01039492588264     -0.54919486292761
  C   1.86529494351070      0.21951135940449     -0.30535145139318
  C   1.57494103856628      1.57661198550056      0.19265640266949
  N   2.46811811065110      2.05784114192722      1.07953777271083
  N   0.63500122621174      2.38502994813129     -0.18624627847794
  C   -0.57581349448256      2.23646147726942     -0.69360853055582
  C   -1.51488139396883      1.25536284451276     -0.48662567847196
  C   -2.89735496705997      1.54442347786107     -0.59996074338630
  N   -3.66728220781853      0.60304784492244     -0.06444929093441
  C   -2.82536401387706     -0.37892023870982      0.36386976642404
  N   -3.35341670433893     -1.50372153906146      0.90465782502169
  C   -1.45566171567666     -0.08674133919139      0.10425939772546
  C   -0.43771113319252     -1.04072737541652      0.01520222711324
  C   -0.56791405158737     -2.42655230310384      0.09457105764475
  C   0.64695630082740     -2.97694210006523     -0.35198596708351
  N   1.58464475642474     -2.07887114961977     -0.64617362644876
  C   1.02183485516662     -0.86318696932944     -0.38098157004120
  H   3.32999222565320      1.57132293394793      1.25296966201988
  H   2.42461431134827      3.03604380866575      1.30624748054171
  H   -0.92734385662977      3.11690604385922     -1.22604827661947
  H   -3.32309930766347      2.46016424095430     -0.98477570256017
  H   -4.32971173240688     -1.43249983121474      1.14007049209187
  H   -2.79243944174822     -2.01427660467634      1.56459143922757
  H   -1.47230843373281     -2.98518082504614      0.25293524812901
  H   0.85218668961540     -4.03187948489605     -0.48092008330137
