26
Coordinates from ORCA-job ./opt_b97-3c_parallel
  N   4.63024826929555      0.04374088684020      0.01330112108197
  C   3.48684291137177      0.25174721856161      0.01086290996748
  C   2.08860564764630      0.52766081465324      0.00812352346739
  C   1.83898857369488      1.91166774439846      0.00776323652452
  C   0.72908545512031      2.72335544112453      0.00777561378300
  C   -0.65243410576916      2.51227508284489      0.00653683195779
  C   -1.50146092059990      1.43310778903197      0.00119067833515
  C   -2.88595906431917      1.65604798016195     -0.00001927003034
  C   -3.58392174838814      0.45919635155188     -0.00877640379770
  C   -2.67494501846795     -0.60759121809401     -0.01322695373258
  N   -2.99480181350233     -1.90539239823775     -0.02488086288810
  C   -1.32319634926232     -0.06803462693616     -0.00635463339088
  C   -0.21711882284764     -0.87946686887977     -0.00110689117287
  N   -0.41880645858394     -2.25076540698044     -0.00373395456081
  C   0.77971132293853     -2.82228750544192      0.00301177492843
  C   1.83381162398482     -1.90436224677826      0.00913777900277
  C   1.27812480056878     -0.62853893857421      0.00659236395241
  H   2.76089096481876      2.48041774806164      0.00893338912901
  H   0.98640648605880      3.77537201180010      0.00967575100437
  H   -1.20300008728943      3.44788504994112      0.00996598578383
  H   -3.33171762572788      2.63860639566517      0.00443570760954
  H   -4.65795828625948      0.35050770834842     -0.01220104347524
  H   -3.95454730672355     -2.19656314673694     -0.01232571824897
  H   -2.21218097716672     -2.55954174988451     -0.01457935494267
  H   0.86826206344757     -3.90025485543112      0.00331007866246
  H   2.88346019436161     -2.13876020811008      0.01418074075007
