34
Coordinates from ORCA-job ./opt_b97-3c_parallel
  N   4.50431384927877      0.71883191845203      2.11517696179826
  C   3.54091376349570      0.58829294917447      1.47371953383702
  C   2.39097668396150      0.41973368008911      0.66799658578392
  C   1.63632951141301      1.56541698049652      0.46934732914719
  C   0.43680408462020      1.84155756969988     -0.17114640731954
  C   0.08678001857941      3.19110139670212     -0.49654208193623
  N   0.93257546840487      4.23706522518904     -0.44668684506775
  C   -1.26965009693162      3.27772633554972     -0.84498298264247
  C   -1.82590023418853      2.01574958517637     -0.72374026622660
  N   -3.05709632106180      1.67767585239825     -1.13726547640498
  C   -0.78798543678973      1.07016849387654     -0.27176374288720
  C   -1.01944624758162     -0.23751903214384      0.08146737004415
  C   -2.27261612856286     -0.84359566140646      0.44844511986331
  C   -3.40252198132982     -0.27777357777775      1.02921981019267
  N   -4.38959395132646      0.15045796436923      1.48286763513661
  C   -2.05274128761333     -2.23001333197484      0.38749538759132
  N   -2.90647552293391     -3.21004727334859      0.69142570818810
  N   -0.78456228163201     -2.53695378329792     -0.00939698032403
  C   -0.11219648649429     -1.39690532598584     -0.12488233031841
  C   1.23367530041985     -1.47599830021827     -0.61357043968908
  C   1.50919132292680     -2.60484985287202     -1.41781026047986
  N   1.84053393147208     -3.49382852513990     -2.09228480783497
  C   2.35899300758380     -0.80528088791429     -0.11427437399805
  N   3.56793991010745     -1.33639536617343     -0.36825123073676
  H   2.11290155894803      2.44240353428262      0.90138454740925
  H   1.92413532723475      4.08735921137927     -0.47224166258105
  H   0.61672051266779      5.14653357016291     -0.72791667709606
  H   -1.76952342436997      4.15445884060146     -1.22560830659562
  H   -3.72363604885874      2.40722672610773     -1.31475880556239
  H   -3.45213681932123      0.79071035375220     -0.88612891554163
  H   -2.55837193278108     -4.15133669752451      0.73276453532231
  H   -3.79290046909001     -3.00375108696744      1.11565595919386
  H   3.65042035575351     -2.23131939435128     -0.82099049892534
  H   4.40076756739829     -0.91442162876425      0.00243088015993
