26
Coordinates from ORCA-job ./opt_b97-3c_parallel
  N   1.21012505465028      3.32753195022692     -0.93601146645780
  C   0.99517917690089      2.14185792222489     -0.29480742660494
  C   -0.17723873664327      2.14776929380370      0.56050625768626
  C   -1.19340771511466      1.24852553010808      0.61951040174756
  N   -2.35733523679059      1.62147158611394      1.29437830222814
  C   -1.28049266646222     -0.05513521575912     -0.00322009730471
  C   -2.46866198491522     -0.70290388593593     -0.35102779372962
  N   -3.73426002576720     -0.24309126163887     -0.40206297361178
  N   -2.27895021218571     -2.05695671784547     -0.66168612002115
  C   -1.01690713171682     -2.29174743048672     -0.44849775094475
  C   -0.28297618755038     -1.08779639265917     -0.07489946494331
  C   1.07837932180093     -1.10079235654485      0.07382614734002
  N   1.78483125846662     -2.26197153751961      0.28059907839860
  C   3.03101121816196     -1.83986235100880      0.40921954618538
  N   3.27794997217260     -0.50360263381916      0.22763872040441
  C   2.07657900323261      0.01894088940854      0.01015607871432
  N   1.94041468269472      1.26548123336999     -0.44316613966774
  H   0.42482455952010      3.91136351110284     -1.15891967844638
  H   2.00647694273528      3.36567159176537     -1.55055068932980
  H   -0.31767153489278      3.08084086906795      1.09607646022427
  H   -2.26931918782218      2.45760172309125      1.84945059998396
  H   -2.78966185590847      0.87401390203148      1.81525950546483
  H   -3.90552277483897      0.74546541144104     -0.35940516987502
  H   -4.41494394405173     -0.83334072610020     -0.84591070652079
  H   -0.56241584982225     -3.25510291798986     -0.61762668641136
  H   3.83905032414644     -2.51853867134820      0.64523430999141
