33
Coordinates from ORCA-job ./opt_b97-3c_parallel
  N   -3.79615025246537     -3.33565692770188     -0.83850691730570
  C   -2.94325835886156     -2.58547471568371     -0.57665107101489
  C   -1.88317805032896     -1.70872745748617     -0.24974103461808
  C   -2.29935595859680     -0.37601128747903     -0.07182851895123
  C   -1.73669749731404      0.86000975097947      0.09365387694629
  C   -2.60373710246919      1.99636614822078      0.25401012417923
  N   -3.94591310177859      1.93668346716658      0.46132786165549
  C   -1.88594454550381      3.17774448959236      0.09251559415644
  C   -0.54821251280975      2.86047333361911     -0.14456112822573
  N   0.43703527315928      3.73552739214080     -0.37008916111280
  C   -0.37843603768161      1.41552287216996     -0.09398877404900
  C   0.85888068611129      0.82911312727474     -0.12715925707289
  N   1.98970440945387      1.60516283283927     -0.29563269934041
  C   3.04403308375206      0.82996843234636     -0.06052448746517
  N   4.30175638264109      1.29731997637775     -0.10467822175391
  C   2.67976619377055     -0.50780772523687      0.25765278127345
  C   3.57638490623586     -1.54803420143708      0.47252835612005
  N   4.35122359090286     -2.40264840240426      0.64781235157747
  C   1.26953687511441     -0.58504412306754      0.15799370966223
  C   0.63211508712460     -1.79990476358746      0.29620874248532
  C   -0.63290464290750     -2.34112764255324      0.00279430471799
  N   -0.65262985415087     -3.70063821005765      0.00908453875489
  H   -3.38179632955415     -0.32538771476238     -0.12372306015508
  H   -4.31927231606357      1.13630093827301      0.93910155252521
  H   -4.41264195727696      2.79607750161430      0.68863619913940
  H   -2.29089867819851      4.17663395208141      0.15242268502525
  H   1.37755900916372      3.34261816942848     -0.39076234051679
  H   0.28068142461478      4.71616241067527     -0.22424809530984
  H   4.46440096625096      2.19242773477051     -0.52901980782323
  H   5.06803018435936      0.64850758887356     -0.08172478566606
  H   1.33718070489420     -2.57788716383898      0.57031529177438
  H   -1.48680878025821     -4.20666961831368     -0.23184995499910
  H   0.20821943077051     -4.21384150473385      0.02755439998685
