31
Coordinates from ORCA-job ./opt_b97-3c_parallel
  N   -5.02827693094031      0.34322355895231      0.44758671605993
  C   -4.01110481621192     -0.18569211840088      0.23691933159967
  C   -2.77766682452072     -0.79333885824099     -0.00749108516733
  C   -2.57626030956388     -2.16449785881459     -0.37953816671030
  C   -1.24096035147971     -2.40852931603570     -0.48225103969993
  C   -0.51650582882012     -1.19463368017305     -0.21410408138143
  C   0.84776516719097     -1.15943602797141     -0.03087564158915
  C   1.57324617749228     -2.38401335263093      0.27839945493178
  C   2.85589390972806     -2.07378045781470      0.57332025885313
  C   3.03923832000801     -0.65385081274337      0.37905450172994
  N   4.26537901516245     -0.06647005361613      0.49820964525360
  C   1.82090814083350     -0.07602924312676      0.01227673191238
  C   1.71565443835452      1.25296664086443     -0.54300711515382
  N   2.87944150122793      1.67444647605964     -1.19275962168246
  C   0.70885194035514      2.16865029678659     -0.44917742079651
  C   -0.51907722586131      2.18822455915676      0.27726372474412
  N   -0.87756899208971      3.44070909172386      0.73598441870184
  C   -1.43555150540456      1.18085000601385      0.50209416757725
  C   -1.53463918867040     -0.14298332209789      0.05947122851136
  H   -3.37472321980092     -2.86730801452865     -0.55918723517344
  H   -0.79177826019009     -3.33913424818801     -0.78268177769652
  H   1.11125486077454     -3.34815748099689      0.39636983887178
  H   3.62319726922773     -2.74854910764698      0.92294097055365
  H   4.94458516062983     -0.53909403292329      1.06772303507881
  H   4.29667955376219      0.93809583727885      0.53331036701328
  H   3.34644765095351      0.95534779170147     -1.72185050990998
  H   2.78731568529002      2.52875769741684     -1.71753195940326
  H   0.91801022979763      3.11429933436361     -0.94331373442939
  H   -0.33563060788320      4.22689323939533      0.42718520390666
  H   -1.85625896796197      3.63367631755916      0.86344138086694
  H   -2.34212916708834      1.52428123587715      0.99163622012806
