26
Coordinates from ORCA-job ./opt_b97-3c_parallel
  N   -5.13380318957200      0.27583525237044     -0.22655428642727
  C   -4.03128649731630     -0.06990158102205     -0.09419099915207
  C   -2.70574873463753     -0.49533379266413      0.05687280865143
  C   -2.27217161814179     -1.83695171731517      0.31719816276224
  N   -0.96394077279182     -1.92657640026376      0.34530028671556
  C   -0.46389986802657     -0.63677066029572      0.13152868724123
  C   0.89969154982379     -0.44858518108179     -0.00710298593064
  C   1.87729499435119     -1.58656312930165     -0.15070530412152
  N   1.50516123649347     -2.84735138318955     -0.21759920258459
  N   3.13072255909338     -1.16798328229882     -0.24904908126590
  C   3.04740688339965      0.18717720040818     -0.11971380190341
  N   4.16836619765372      0.90492914859160     -0.08113681872529
  C   1.71940245382883      0.69508406788449     -0.00683154770418
  C   1.42018198602127      1.97933623104571      0.59425864323132
  N   0.40583716819594      2.73633683152110      0.48279342475723
  C   -0.64971644791429      2.61942354357397     -0.38943754369698
  C   -1.56366879540313      1.64143229014004     -0.53673364297785
  C   -1.55747558831330      0.29157623354485     -0.05280777034278
  H   -2.91084178983622     -2.69280290030298      0.47666044037406
  H   2.20195150156017     -3.57024960050928     -0.28199665039466
  H   0.51794023010681     -3.03353699792207     -0.01276217707254
  H   5.05091178492540      0.43595987169000     -0.18216541385024
  H   4.14968141663623      1.90738203752294     -0.10201963602007
  H   2.16013969741952      2.31246111090959      1.32806158430153
  H   -0.83508560186663      3.54890369728434     -0.91915095861793
  H   -2.43518548608965      1.90395045257996     -1.12500247574720
