20
Coordinates from ORCA-job ./opt_b97-3c_parallel
  C   0.63230409297177      2.66577239369225     -0.09480452451991
  C   -0.71331220150878      2.57100557369599      0.28968446596065
  N   -1.61223187510562      1.64099990146178      0.14396091404020
  C   -1.69475229797022      0.35451307857761     -0.04687982359250
  N   -2.85560642091456     -0.22249461538560     -0.39644606071419
  C   -2.61513169958986     -1.54338670310102     -0.25374980437588
  N   -1.39205965507868     -1.93249505459850      0.12935079311023
  C   -0.69177650246257     -0.78066909332511      0.19489838350185
  C   0.68322934334777     -0.75177910910680      0.20691842429828
  C   1.47772779884468     -1.92934655734780      0.28573983772213
  N   2.77588802476533     -1.68116552846582      0.13715814381040
  C   2.88990863743111     -0.34548678981347     -0.09029788689679
  C   1.66836550678587      0.32736361153446     -0.05338632447404
  C   1.60815440960997      1.70560183748835     -0.25532521289184
  H   0.98517805382238      3.68783125919283     -0.16292037664327
  H   -1.12001523618868      3.48685438170064      0.71688827561828
  H   -3.39886121539772     -2.26737469673808     -0.42877422827509
  H   1.09689381871189     -2.92559855427548      0.44060489523692
  H   3.85689358883916      0.10305108839713     -0.26521016194964
  H   2.58062793758671      2.12326702111668     -0.49815289006580
