25
Coordinates from ORCA-job ./opt_b97-3c_parallel
  N   4.56255008782440     -0.39189627042912      0.64469791280221
  C   3.45604695999718     -0.71516407601462      0.48635480363145
  C   2.12755761309192     -1.10245293233495      0.29068609881164
  C   1.64295311775939     -2.43612636221425      0.16111212202510
  C   0.30276600482706     -2.43899081862514     -0.13999895974454
  C   -0.17463779344620     -1.10471202262308     -0.15011896016842
  C   -1.49757242286027     -0.74478537908166     -0.20834449281658
  C   -2.56124339671265     -1.68878329249383     -0.44838782783463
  N   -3.75648137970162     -1.15833926417070     -0.30227935897740
  C   -3.55163032058913      0.14612656458693      0.08077784123540
  C   -2.21427830094250      0.50027708021150      0.12625511373942
  C   -1.82676567453234      1.80546203609519      0.49232826499418
  C   -0.68087079738855      2.52779945119541      0.40514853703347
  C   0.60225534773565      2.18532608049281     -0.13446263403336
  N   1.31429932549796      3.23120447596387     -0.63079803035233
  N   1.26683459148678      1.05931050743578     -0.11086833734674
  C   1.06108301980446     -0.22007448330984      0.06069744746887
  H   2.25918149675948     -3.31291779883028      0.28846905203049
  H   -0.30718193931521     -3.31906556689973     -0.24186128314930
  H   -2.43955897906645     -2.72025832072564     -0.74075673407534
  H   -4.39185350335177      0.78854810375844      0.29896668985879
  H   -2.66519559749901      2.38342814045207      0.86926753951650
  H   -0.75710562578449      3.56280305916237      0.71625883807824
  H   2.23449542678515      3.04292308848064     -0.98936732891776
  H   0.85947321981994      4.08325680021798     -0.90045280420970
