34
Coordinates from ORCA-job ./opt_b97-3c_parallel
  N   -4.56882975597545      2.03270910783830      0.26077494739453
  C   -3.63107118009762      1.34996715908046      0.15781145178850
  C   -2.56158904691525      0.46710300660987      0.00297552580111
  C   -1.19814540492720      0.74945121650836      0.16355248792712
  N   -0.78862519777394      1.91916677818360      0.70163762974995
  C   0.16927705801958      2.68170446611161      0.29604219280732
  N   0.30660197185644      3.88086390152276      0.92667229358462
  C   1.07225544652690      2.48476848184119     -0.83805140003945
  C   1.93062845698127      1.45111387639194     -0.93782450640837
  N   2.97755756680262      1.48843551857147     -1.86998472387703
  C   1.95047477784610      0.27790337028985     -0.07903239872405
  C   3.12867717604372     -0.36398634760627      0.37139440932496
  N   4.38237055265775      0.11440097402026      0.32483429326952
  N   2.90583364972779     -1.59658219547575      0.91420108376922
  C   1.60750213081680     -1.81907438951612      0.76747662068276
  N   1.03829584091698     -2.90714402944629      1.29237680968889
  C   0.90567842324817     -0.64918941620002      0.15889826769744
  C   -0.46014626857665     -0.49911022108843     -0.02209192355319
  C   -1.44227604369958     -1.52324870079276     -0.28993077251034
  C   -1.22802973980789     -2.83346080476015     -0.69176515755061
  N   -1.06032622220959     -3.95279436179400     -0.98664578419039
  C   -2.71192690501391     -0.92120155066982     -0.30848590523121
  N   -3.88208760340480     -1.51834375984596     -0.57334296234798
  H   -0.25599378268170      4.02449615927902      1.74922929215608
  H   1.19777774700428      4.34119937992058      0.89567859270755
  H   1.14254652642326      3.31021183224941     -1.53792483116304
  H   2.90604334456493      2.24125517190527     -2.53783053146230
  H   3.12423188630632      0.60461543482012     -2.33615926009944
  H   4.56592798115021      0.90115833187601     -0.27576914336106
  H   5.12971461401879     -0.53179114756867      0.50985851507319
  H   0.16112496111704     -3.25223223770056      0.94070784791659
  H   1.66875915285741     -3.59513146550509      1.66876136576157
  H   -4.71328997631330     -0.96761761481294     -0.69131170170631
  H   -3.90748738328938     -2.47677238783718     -0.87152277257586
