35
Coordinates from ORCA-job ./opt_b97-3c_parallel
  N   4.45569770250869     -2.24897567346438      1.00545012773457
  C   3.67651201384752     -1.45074079347928      0.66646257354449
  C   2.77830558288514     -0.47266708330647      0.24694130449860
  C   1.37653188847016     -0.52514835046100      0.27105769075035
  C   0.68426388948120     -1.59453559663639      0.84575209452363
  C   -0.53421588190460     -2.15827089986824      0.53635493145822
  N   -0.77675248270261     -3.39760650058354      1.05860805166671
  C   -1.59150479490735     -1.65251900587683     -0.32062496333968
  C   -2.30453752899078     -2.64545141315244     -1.01888426252731
  N   -2.91382066182273     -3.46508998903841     -1.58523406821758
  C   -2.16058973922986     -0.36685299298292     -0.31175142459512
  N   -3.46001025074389     -0.28395854750105     -0.76059478244796
  C   -1.59725171670100      0.85847487587335      0.13635148950057
  C   -2.39572182177112      1.98742232150402      0.49093207152066
  N   -3.70842940453898      1.97629178084179      0.84235390875650
  C   -1.65051654670600      3.17811307907545      0.39118713133232
  C   -0.38532766546733      2.85828398225597     -0.06136540171993
  N   0.61792516079764      3.69764703933383     -0.34231033037018
  C   -0.27096067899502      1.38519011688210     -0.14086268014947
  C   0.95443995002204      0.77857679834794     -0.27445818630556
  N   2.07198383419392      1.49847297308363     -0.68041559803713
  C   3.13361157187730      0.76819334432886     -0.37765758886903
  N   4.39684359128151      1.17878621062078     -0.61089949534258
  H   1.30440698929308     -2.21025115017328      1.48971713545362
  H   0.00414038306618     -3.95349330247279      1.35986064187615
  H   -1.57361455826863     -3.91625027106157      0.73366933305022
  H   -3.72671807738013      0.56527207488361     -1.22788211145757
  H   -3.86877651839798     -1.11730352166774     -1.15096939952955
  H   -4.12458616405052      1.09464210672245      1.08648994205026
  H   -4.06045139286415      2.77491624683397      1.33913700491780
  H   -2.01623862208383      4.16755663478069      0.61742750501228
  H   1.51224986128365      3.25848796957136     -0.56154375555348
  H   0.57071669775751      4.65426634826797     -0.04122894991528
  H   4.52331601801317      1.93848882754996     -1.25598926438079
  H   5.13602278264951      0.49962079646680     -0.56731199328752
