32
Coordinates from ORCA-job ./opt_b97-3c_parallel
  N   -4.52165202574833     -0.96248102374303     -0.72667184537636
  C   -3.37549742638797     -1.12156869489048     -0.61086918692262
  C   -1.99537129323546     -1.35074717585896     -0.52961236144881
  C   -1.37526471968607     -2.62550624893555     -0.81959244710525
  C   -0.03726419074203     -2.52540026816347     -0.61670386392016
  C   0.27440788532179     -1.15613433676829     -0.26086999210605
  C   1.51716242085432     -0.70530256729648      0.08756657889152
  C   2.58210207541320     -1.58989355761328      0.64428575698714
  N   2.38365979479397     -2.88599495183529      1.00652829488065
  C   3.71810177240153     -0.84069844142566      0.81384624314964
  C   3.43988280292271      0.47552174469346      0.36630479137552
  C   2.11708161413007      0.61153965199778     -0.03247841657027
  C   1.65127059625022      1.75069507591466     -0.78788503540733
  N   2.65856253421836      2.40573767952017     -1.47307570668699
  C   0.40624457126577      2.31866873300890     -0.81616970040983
  C   -0.72899341812241      2.09271301333737      0.01768947338049
  N   -1.38855060640347      3.22363284802448      0.38053255843642
  C   -1.29303403386858      0.85916927434783      0.36981699757023
  C   -2.36645152765437      0.91155551722191      1.28347342596531
  N   -3.21432686581602      1.02353266008533      2.07476944417418
  C   -1.01322304956741     -0.41888716912748     -0.22506601488728
  H   -1.91091875237741     -3.48299142930988     -1.19483278458609
  H   0.69844073691637     -3.26479906619961     -0.88520249054841
  H   3.03576036240090     -3.27600143678612      1.66519469826732
  H   1.43330369488082     -3.19004890637369      1.13578216386470
  H   4.64099108959595     -1.17263119113625      1.26186693958475
  H   4.16574907012560      1.27431041751716      0.33952174442371
  H   3.38103421433207      1.82064267901708     -1.85702134268416
  H   2.37405938227752      3.14797562847687     -2.08980144346285
  H   0.31311969551201      3.21006636860261     -1.42827583541610
  H   -2.21971633953908      3.16035838512457      0.94463972622899
  H   -0.88684112546444      4.09129129107365      0.41174769475763
