33
Coordinates from ORCA-job ./opt_b97-3c_parallel
  N   -3.19699939513206      1.73909692427745     -2.33755747780475
  C   -2.43274268517157      1.61035218701051     -1.47312243130743
  C   -1.46960684260708      1.43314195935635     -0.43973061392310
  C   -0.77018104623699      2.51557335407331     -0.04197565716547
  C   0.26251047561961      2.57880511499224      0.96526460698249
  C   1.40509185907104      1.86925072622485      1.01429206459572
  N   2.43525444934913      2.22793840854954      1.91559796728408
  C   1.79168595149033      0.80820227179280      0.09098912782444
  C   3.12788226355972      0.68299447485009     -0.47985070025266
  N   4.07298824989542      1.60088784328540     -0.32158841692826
  C   3.24900664598737     -0.51720075201195     -1.20900318093320
  C   2.03734444220652     -1.16278909673881     -1.09964002936598
  N   1.62025059518943     -2.25127741963773     -1.72777233221278
  C   1.10702482464254     -0.33821738102283     -0.23802111985961
  C   -0.19658119393840     -0.74005248551754      0.11045824257054
  C   -0.60989135518817     -2.07393370290832      0.51448726153970
  C   0.24030782695310     -3.14372729782979      0.82842619111142
  N   0.96476280447999     -4.02752609955708      1.05231233650496
  C   -1.97491165388650     -2.03988004180609      0.76528841086427
  C   -2.44507360830020     -0.73278182581850      0.47782772749007
  C   -3.78358067903312     -0.32549756331084      0.59028520053477
  N   -4.89197896863628      0.00142363499649      0.71425196734884
  C   -1.35304259191470      0.07370254314447      0.10340792501629
  H   -1.05880507721765      3.46658301311242     -0.47934117560176
  H   0.15212645821426      3.38976493450763      1.68137294739989
  H   2.14034610334264      2.92351797952631      2.58549652711985
  H   2.81466212032487      1.42846249951380      2.40573428526802
  H   3.90839070567584      2.33946875869077      0.35148560835144
  H   5.01105601248419      1.43608268043993     -0.64217570862578
  H   4.10206301194144     -0.82608772411375     -1.78911158108407
  H   2.26140074069793     -2.82923910522304     -2.24203320827951
  H   0.72488859759759     -2.65153726767307     -1.49921062195374
  H   -2.56955256566000     -2.84912256677486      1.15273508429121
