32
Coordinates from ORCA-job ./opt_b97-3c_parallel
  N   4.68340745214488     -0.17412326423145     -1.73096499293577
  C   3.64325476164157     -0.11902251350169     -1.21171047095489
  C   2.38604568798132     -0.06168229177195     -0.55842968517444
  C   1.90649155852341      1.23014513405854     -0.39083636608474
  C   0.75566608374727      1.82410790364174      0.09243291672893
  C   0.72649573192137      3.22664757816647      0.33612803359493
  N   1.78835378554517      4.05499282947307      0.42971093151655
  C   -0.61847144373969      3.63653648585139      0.53816614516046
  C   -1.42863353623763      2.54295662767057      0.39441816493074
  C   -0.64120233535545      1.37516951559159      0.14045576632629
  C   -1.20377063903108      0.13853975041798     -0.09394234378414
  C   -2.58717266999963     -0.11121101629110     -0.32950392918615
  C   -3.62419621408766      0.75290552236023     -0.66963945430882
  N   -4.54781189754684      1.40561858487223     -0.95368898820943
  C   -2.75321596682676     -1.50410848724049     -0.22324683545133
  N   -3.87362292659204     -2.20159803812442     -0.38965141595019
  N   -1.58795654069360     -2.14737735631438      0.06075308394967
  C   -0.62237535489373     -1.23080023549307      0.09585128337945
  C   0.67049987088243     -1.70506329846623      0.45504971699436
  C   0.63708475633674     -2.97613290804664      1.08587164136272
  N   0.74464423897854     -4.00376293291707      1.61982516784508
  C   1.96469378798954     -1.30152213048932      0.05051760895488
  N   2.95671504155019     -2.19281048216193      0.23546175924525
  H   2.64392845634598      1.95425641270610     -0.72838633786947
  H   1.65167372343474      5.04446740130861      0.33312443123937
  H   2.71858655968331      3.72131672874907      0.25480940338953
  H   -0.93337515194130      4.63711870031102      0.79079068606882
  H   -2.49827314423379      2.54818783307939      0.50490816602036
  H   -4.73561737056091     -1.75081903385110     -0.63856187915068
  H   -3.84274228619714     -3.20247064228745     -0.31498007430383
  H   2.76254448209933     -3.11793788665207      0.57964009590974
  H   3.90081388703145     -1.97606489401761     -0.03056623715318
