29
Coordinates from ORCA-job ./opt_b97-3c_parallel
  N   3.69891093053689      3.77660307858334     -0.25375582558791
  C   2.91512776881317      2.91932124408790     -0.21643348342233
  C   1.95963984711609      1.86962648639564     -0.17265977676712
  C   0.72509994829411      2.17221174138391     -0.76289806746108
  N   -0.45812062798534      1.65384365494239     -0.58467630761214
  C   -1.03053338206738      0.57947743113997     -0.12335499329271
  C   -2.38416634263920      0.58090521240623      0.26218566421954
  C   -3.25682124055262      1.66428868336189      0.32871741559923
  N   -4.05571645963461      2.50797139364891      0.41422250888783
  C   -2.79409365339485     -0.77471839435181      0.41137452176675
  N   -4.02275956854869     -1.13902303874635      0.77664365728876
  C   -1.71303182164986     -1.63820434363975      0.13964492577591
  C   -0.57058762865871     -0.87613260413562     -0.09232663979240
  C   0.74320730960241     -1.34310601636061     -0.13385301212475
  C   1.07589666349371     -2.72206604361050     -0.19858976130768
  N   0.23930765827747     -3.74552468442594     -0.55767447226418
  C   2.41048140345124     -2.90483663509295      0.22596128214035
  C   2.93567265015098     -1.67867962314485      0.56192105410339
  C   1.99011855129953     -0.65132791297538      0.29133286068302
  C   2.42804278531880      0.65026383031960      0.35521341048001
  H   0.71925202808193      3.06080301461918     -1.38927731569495
  H   -4.72562660147500     -0.44453430675011      0.96416306156690
  H   -4.29598756263149     -2.10365649062441      0.80408369557017
  H   -1.73438512267454     -2.69629945721303      0.33769232607465
  H   0.69950496126326     -4.60555011755172     -0.80588143126814
  H   -0.49670591339957     -3.50353075049246     -1.20215054389419
  H   2.92733140077752     -3.85231828674176      0.25665035012219
  H   3.94556379140091     -1.49137514445781      0.89102413995020
  H   3.42962878253409      0.73220580682767      0.76080426936083
