26
Coordinates from ORCA-job ./opt_b97-3c_parallel
  N   4.91870973115019      0.19359157474921     -0.43742383314070
  C   3.83751954113018     -0.21465527506647     -0.30382977875536
  C   2.54873585063958     -0.72979983912813     -0.14296303018853
  C   2.18499368192358     -2.11799089216839     -0.02971596177965
  N   0.91299309015644     -2.31335939647265      0.21169520827839
  C   0.32287332223911     -1.05071902308236      0.21783284199405
  C   -1.03700905109783     -0.93728827145038      0.27357881315598
  C   -1.86992086739168     -2.10009816399785      0.53362006051063
  C   -3.17081169404020     -1.75500835877668      0.40698239315429
  C   -3.23251297583615     -0.36823623896927      0.00058994391231
  N   -4.39578561770955      0.27453658303353     -0.23319610167939
  C   -1.93801111961120      0.16264118181989     -0.05857429049752
  C   -1.66918182624589      1.39382573091844     -0.71158994850048
  N   -0.68607159766650      2.22356234214493     -0.65744529202875
  C   0.37779221467693      2.16704410823354      0.20937816829195
  N   0.47880781920604      3.28076835571947      0.97786272003934
  N   1.34807503461839      1.30529426482090      0.29798774818859
  C   1.37797963558082     -0.00344373888817      0.05861932045038
  H   2.87394131831928     -2.94679393914744     -0.11909044867576
  H   -1.46230539899097     -3.05939519139740      0.79871612869746
  H   -4.03083772248705     -2.38546953036425      0.57535755975997
  H   -5.22569943998440     -0.25935671703428     -0.41679466018853
  H   -4.39567011231220      1.21804944087806     -0.57647448848783
  H   -2.44802365932249      1.70857518100655     -1.41252458857541
  H   1.35922738903853      3.42826904947932      1.44038343849580
  H   -0.03151846048306      4.09433589213946      0.68422143206888
