28
Coordinates from ORCA-job ./opt_b97-3c_parallel
  N   5.61485192849418      0.02326747378508     -0.71646762689258
  C   4.49282519740165      0.20669940666288     -0.47870191708468
  C   3.13923204396098      0.44848546785585     -0.18646727477741
  C   2.63829645839744      1.60347631977521      0.47940780289555
  C   1.25920095067737      1.53123758509885      0.51547277331242
  C   0.48582654229099      2.54599809465006      1.12317366340316
  N   -0.68229010891892      2.99159403624280      0.80504094295944
  C   -1.69068466656835      2.61381204058763      0.04788517040560
  C   -2.26802273878809      1.36362793317343     -0.13900896618630
  C   -3.59375420748360      1.41312087222185     -0.64790685594949
  N   -4.67861377256942      1.44500306135405     -1.06212698083133
  C   -1.76244552655716      0.05482351979563      0.12031874833824
  C   -2.59587970568344     -1.03588694710999      0.16848106782413
  C   -1.81670142392115     -2.22230187021109      0.13858596127743
  N   -2.28125728614162     -3.46535607842188      0.21474182910111
  C   -0.44804101624906     -1.86979471255099      0.03541068788902
  C   0.54099419452098     -2.85377043738509      0.08208040638160
  N   1.26392479199374     -3.76613598458750      0.12164775695676
  C   -0.34130534289916     -0.45774421860256      0.04145243159515
  C   0.86726117832631      0.22675264012424     -0.06152205814220
  C   2.07412930544299     -0.39177271962610     -0.48141563246415
  H   3.23935326125978      2.41269776661664      0.86041601137141
  H   0.98690740825926      3.11741823977696      1.90206494393349
  H   -2.23833486997452      3.44671004309855     -0.38288558572983
  H   -3.67268273998023     -1.00221062583343      0.17387309156716
  H   -3.26114440453325     -3.65176021059584      0.32438580102290
  H   -1.65169675224780     -4.25070706590600      0.19507002693905
  H   2.16193182488958     -1.34666132528949     -0.96606169051572
