27
Coordinates from ORCA-job ./opt_b97-3c_parallel
  N   -4.76147579962167      2.18549304571676      0.74223915074454
  C   -3.72076384699816      1.74823441786680      0.46376671182664
  C   -2.44757981210077      1.22818300675373      0.12767617521178
  C   -1.61360241255286      2.08899593280101     -0.63944394817020
  N   -0.33421354903062      2.14443601250468     -0.71288587714579
  C   0.75304062826278      1.54719950193761     -0.28353348394331
  N   1.81665597645515      2.26874185145465      0.06474195702149
  C   2.84213385848008      1.38376748555452      0.17205163374426
  N   4.04733602371756      1.79938348241004      0.53218531491999
  C   2.47472982914652      0.03961418909690     -0.12193526380398
  C   3.35630337386212     -1.02983160066122      0.00383495758305
  N   4.15077527006951     -1.87510736268790      0.11806887662200
  C   1.07838546655893      0.06601443762846     -0.31243070912425
  C   0.18094929398806     -0.98128447371309     -0.34041277344035
  C   0.57388445780081     -2.34488133948936     -0.43121948469865
  N   -0.42836069868337     -3.19941951983269     -0.27235007888795
  C   -1.53278479908550     -2.44511036748229     -0.01607847599353
  N   -2.70003178703186     -3.07345521771575      0.22176634419153
  C   -1.26523513262334     -1.04358991893888     -0.03702019869319
  C   -2.25169804789987     -0.14065973387656      0.31700233033508
  H   -2.13750722899324      2.82746318266435     -1.24433229581508
  H   4.18578156189954      2.76825891582459      0.75958404832736
  H   4.82337104561429      1.16325006334595      0.58870581276643
  H   1.56984308324852     -2.70529395359452     -0.63191413738489
  H   -2.70219830857684     -4.06896600430586      0.08357789389690
  H   -3.57544427332387     -2.60373060201053      0.08727913530378
  H   -3.12921792348249     -0.61015429365254      0.75001062420609
