29
Coordinates from ORCA-job ./opt_b97-3c_parallel
  N   -4.76074536868770      0.38059513435288      0.76577695897540
  C   -3.63235891173412      0.62497789292784      0.63108467975129
  C   -2.27663906646165      0.96677662909969      0.51541430777568
  C   -1.76399031220717      2.30428886291988      0.72344188753170
  C   -0.42711019335992      2.29151927356147      0.48373984445771
  C   -0.02332916001835      0.92841822088734      0.17688858965894
  C   1.27618873403361      0.52916690288599     -0.07414219766766
  C   2.33471162634957      1.46561602513626     -0.58609278919832
  N   2.04015885206893      2.64942264564268     -1.13875274604250
  C   3.55834423749081      0.85547566943123     -0.49808686035140
  C   3.32800106114246     -0.45192226751439      0.01287638727072
  N   4.29440155206437     -1.33568902485826      0.28206323748050
  C   1.93873278474979     -0.69035280709332      0.21125322627031
  C   1.45759826564885     -1.75247755614969      1.05719977380673
  N   0.35620219001917     -2.39852403619170      1.00804462731932
  C   -0.58833649105289     -2.30420593971922      0.02871756582763
  C   -1.37002268605258     -1.24503539139999     -0.29385132192875
  C   -2.39193272868510     -1.47235670277964     -1.25325373585756
  N   -3.20156055361400     -1.65015310073172     -2.06706645376428
  C   -1.22394533696376      0.11408551673028      0.21579027030399
  H   -2.35932150335994      3.13794350266307      1.05745194189556
  H   0.25040877053905      3.10574945417276      0.68115510644179
  H   1.08112590490228      2.89017800935875     -1.31657433807869
  H   2.74505014586611      3.17366036127194     -1.62410233602555
  H   4.49913102197175      1.23312579016088     -0.86460302144958
  H   5.26286785760937     -1.09593257979720      0.17984492012466
  H   4.07693760822972     -2.28462752698724      0.52572462421066
  H   2.11812784181855     -2.03708910670660      1.88044380657832
  H   -0.79876049150739     -3.25329085027390     -0.45349975631672
