32
Coordinates from ORCA-job ./opt_b97-3c_parallel
  N   4.83791965117809      1.30761499629262     -0.69717817963593
  C   3.83424326715980      0.78053892658166     -0.42831461862760
  C   2.66889490508701      0.09822064513125     -0.07183459182636
  C   2.66872146901112     -1.22108502129443      0.53049784623807
  N   3.81446022756210     -1.89535887648987      0.83348594948765
  C   1.35834201716790     -1.62036918169107      0.67547424301602
  C   0.50439799266473     -0.55473003978710      0.23425810944807
  C   -0.86565971399044     -0.66328221004259      0.02737023502268
  C   -1.53310254563781     -1.94207443969033     -0.36475559210316
  N   -0.90065737323029     -3.11142335782976     -0.54692799252591
  N   -2.81294349155233     -1.78283485178449     -0.62723117157498
  C   -3.05835126802672     -0.44907686288046     -0.38905319585921
  N   -4.30524664439761      0.02050483578972     -0.54502139360232
  C   -1.90890560595738      0.28445256597075     -0.02037833060809
  C   -1.94536920164980      1.64562933325111      0.50278345975774
  N   -3.09713800758719      1.90573645399829      1.27798922358494
  C   -1.08549833330750      2.64590692215235      0.23011619736072
  C   0.04361850552547      2.66470628439156     -0.66136738407104
  C   1.04978735077856      1.78793662406243     -0.85626526172934
  C   1.35400911111507      0.54314642903460     -0.20736376317964
  H   4.65412482899940     -1.34899531633674      0.92910449817220
  H   3.74424062891749     -2.65759436251995      1.48404967215860
  H   1.03150827271797     -2.49741651254098      1.21160871858896
  H   -1.38116670636604     -3.80600953232712     -1.09422683698094
  H   0.10661473952194     -3.09644778515189     -0.58957645005163
  H   -5.04902377047942     -0.65129491806799     -0.62095143542304
  H   -4.50906926090855      0.93484487700548     -0.17109732195581
  H   -3.27807720613073      1.17729935197634      1.95517340311169
  H   -3.07164949539848      2.80568693320320      1.73427132782848
  H   -1.31173078357233      3.61280352211398      0.67449227328427
  H   0.16145892439369      3.60701649709868     -1.19019870669434
  H   1.83309845209156      2.12664258218073     -1.52615745410978
