33
Coordinates from ORCA-job ./opt_b97-3c_parallel
  N   3.69952018378284     -3.07331619485884      0.20556186371868
  C   3.08245590131796     -2.09287426174887      0.08088717835271
  C   2.42357580875012     -0.87944895697752     -0.10490285623606
  C   3.06351447585175      0.32063076908990     -0.58977918072998
  N   4.31651136439251      0.33036931120381     -1.05356744162918
  C   2.17192135727487      1.39051600520700     -0.51627042068124
  C   0.92244097080042      0.90285352657272     -0.08420547489678
  C   -0.23702329124884      1.62765294731424      0.10767820003187
  C   -0.24387172548029      3.06307076874807      0.36430831525401
  N   0.87925245087881      3.83584032613694      0.54063809312837
  C   -1.55534307508827      3.49080131549329      0.45657808168505
  C   -2.39190972717823      2.38831434643509      0.20586460036049
  C   -1.64082505726050      1.22582180850479      0.02238120473129
  C   -2.24446059268912      0.02777305877975     -0.48041066320946
  N   -3.37894443888905      0.22058186605482     -1.20793518160170
  C   -1.88676925727060     -1.29670797947576     -0.19659925275859
  C   -2.68206602251321     -2.32432347294525     -0.72646732235783
  N   -3.36610246226664     -3.15825493180257     -1.17236138182783
  C   -0.92909458180231     -1.69793909908216      0.82304350120037
  N   -1.37397841777966     -2.58236644191360      1.74341934807893
  N   0.32881840669620     -1.38312193021349      0.90380845497952
  C   1.10716465956377     -0.56403596951841      0.21720996010579
  H   4.75464339649045      1.17905902002521     -1.35864039361486
  H   4.85946544469928     -0.51493652636778     -1.07647939064788
  H   2.34522411106218      2.36020933629920     -0.95172457815983
  H   1.70476910244226      3.33071086914610      0.82639746006961
  H   0.73127190655201      4.66731306120472      1.08947678972829
  H   -1.88042318273449      4.48843375479592      0.70796650637228
  H   -3.47027626565719      2.42605954777493      0.19542737777041
  H   -3.47850638677801      1.08621128106420     -1.70379789781777
  H   -3.86934434625635     -0.57333473708192     -1.58382795404670
  H   -0.69292556378445     -3.10227383415338      2.26933336854411
  H   -2.30557466227886     -2.94961314541221      1.68071033540507
