23
Coordinates from ORCA-job ./opt_b97-3c_parallel
  N   1.25967969043223     -3.22840020106766      0.90114863759165
  C   0.72099550473171     -2.19918954728181      0.20163678286337
  C   1.67568871118625     -1.16173678547530     -0.12735975217485
  C   1.57048897305326      0.18494458164480     -0.14443705034133
  N   2.77015959322438      0.89177073690714     -0.25636245296449
  C   2.45762681901114      2.14004217661740      0.01837132559436
  C   1.07260540574657      2.35115088062390      0.27476446029296
  C   0.44184967600677      1.13591839296306      0.13882565956660
  C   -0.95842015760382      0.91090358225205      0.14523488363222
  C   -1.91510190293699      1.90404226356032      0.33016435233001
  N   -3.17892057856486      1.50958051158411     -0.00907860839876
  C   -3.06749382227121      0.26695877890969     -0.45903635206275
  C   -1.73116803373008     -0.22310929040534     -0.36746826050644
  C   -1.46954328557159     -1.55539896199957     -0.59928211939042
  N   -0.51332381692006     -2.36486445803579     -0.17716027517702
  H   2.13521977770623     -3.11654598898534      1.37794409141965
  H   0.64377544912010     -3.96358407351913      1.20315075205952
  H   2.69258118194107     -1.51407908766469     -0.25891881465563
  H   3.22274662534017      2.90630322193337      0.02341631997989
  H   0.60561333514347      3.30415705816711      0.45830977192635
  H   -1.74167793759741      2.91680391943832      0.65999035934355
  H   -3.93044535203632     -0.30320731327312     -0.77387627176936
  H   -2.26947291531096     -2.09091139219358     -1.10627645705899
