27
Coordinates from ORCA-job ./opt_b97-3c_parallel
  N   4.24784664493554      1.25550956627114      1.16060871829475
  C   3.17371805327248      1.10579440275189      0.74381902572080
  C   1.85599108852254      0.92652260596899      0.22718440448335
  C   1.20432220946682      2.10651834950905     -0.00711577166090
  C   -0.07751130183730      2.44714348307725     -0.50632878070324
  C   -1.27521518013943      1.80842421400326     -0.50403593120335
  C   -1.72659443670770      0.53302789266321     -0.07186772694433
  C   -3.08375838191356      0.29960222852985      0.14075278830185
  N   -4.08929698214763      1.21138857789590      0.12523346541466
  C   -3.31842469331823     -1.11845031249246      0.32949025376375
  C   -2.14142144186509     -1.75908817519542      0.20717319824782
  C   -1.07391178330907     -0.77302330050342     -0.01677746200378
  C   0.22841887383683     -1.17787938353861     -0.13432251842839
  C   0.57133241506615     -2.58890729276307     -0.30987498743756
  C   1.91658895405239     -2.71249461472655     -0.34695489774045
  C   2.50016544775297     -1.41059251806746     -0.14819852191988
  C   1.51989105598405     -0.45623080317594     -0.04910804111049
  H   1.81551700276559      2.97939357269041      0.19164847539983
  H   -0.12389386511709      3.47006749041487     -0.86262466013916
  H   -2.07839359466647      2.42355794821885     -0.90288613389616
  H   -4.98993742158697      0.92586977157226      0.46432593006172
  H   -3.86598883206790      2.17470951917686      0.30233715787647
  H   -4.27777863919917     -1.56152879576495      0.55187728359864
  H   -1.98287771407941     -2.81241891918468      0.35006673985083
  H   -0.14017086853906     -3.38022897596438     -0.46545553213666
  H   2.47420723251113     -3.62319299509294     -0.50055742324567
  H   3.55816823212867     -1.21695793127509     -0.07152809994509
