22
Coordinates from ORCA-job ./opt_b97-3c_parallel
  N   4.30625037961076     -0.91186075752427     -0.21596304395381
  C   3.16014322403130     -0.75609593813377     -0.11849226580012
  C   1.74285897054245     -0.69692195507425     -0.03400819583731
  C   1.10882305214637     -1.92569660072874     -0.35019032541245
  N   -0.02629629225418     -2.39826785882339      0.04622553904017
  C   -1.20177928017523     -2.04210505908419      0.47439106653581
  C   -1.92227346740015     -0.90188287918923      0.13676139960269
  C   -3.31405963250367     -0.83702237784338      0.08816769508049
  N   -3.75491919546902      0.37530989115539     -0.33332432212052
  C   -2.67345957404159      1.13638676697246     -0.51199219149656
  C   -1.46053059499582      0.44957918428590     -0.23671128701761
  C   -0.23950254190893      1.08095008363389     -0.02730574342768
  C   -0.06543085583996      2.47197632759226      0.03169241668782
  C   1.25696298492198      2.70491118241108      0.36880413667742
  N   1.99924843345875      1.57463588650901      0.48223677737867
  C   1.17509215085290      0.55244032188169      0.23644273812423
  H   1.70846342834141     -2.62107422208351     -0.93133707364683
  H   -1.71825710663328     -2.80425665746332      1.05387961589577
  H   -4.00686113187457     -1.63873047200919      0.29395436025579
  H   -2.77117716961648      2.16750229672103     -0.81311809639050
  H   -0.83899687179556      3.21436332021659     -0.05497978335806
  H   1.71475373590267      3.66520332437809      0.55949107738284
