24
Coordinates from ORCA-job ./opt_b97-3c_parallel
  N   -3.69408697097018     -0.69264303036636     -0.03420888436848
  C   -2.52648520099006     -0.04883336469229     -0.09234437406766
  N   -2.52624613732661      1.31194453721486     -0.20969546645234
  C   -1.24783200164080      1.65077540695875     -0.12574381644196
  N   -0.79077735913614      2.88504328829924     -0.18418221725845
  C   -0.34342929107207      0.45665762635539     -0.00583496305046
  C   1.02597443308620      0.56214964559388      0.11650400016529
  N   1.63885372373743      1.79938854343795      0.29880361107170
  C   2.92572058369681      1.53365027405554      0.20930394442382
  N   3.25551327461555      0.23082698869931     -0.05685098872472
  C   2.08812661136892     -0.41276800651259     -0.09724812662695
  C   2.01703078500759     -1.76212968593131     -0.57589991171006
  C   1.03774220316998     -2.67447854659359     -0.42489152919338
  N   -0.00767931502954     -2.73110358264190      0.46624885096399
  C   -0.99224811103898     -1.93618087784569      0.58565281331117
  C   -1.23481233074309     -0.63886826125913     -0.00767842275838
  H   -3.74056228633713     -1.69235006156318     -0.09542042308331
  H   -4.54214633975157     -0.16533024530984     -0.14102738308992
  H   0.21252387630898      3.00206740078947     -0.00529771463232
  H   -1.43482365952734      3.65538231411187     -0.24203227947166
  H   3.68595479172871      2.29022227937901      0.33715943653771
  H   2.87086862376530     -2.05962525496822     -1.17138890129959
  H   1.14537097709859     -3.60797385423658     -0.96987021404074
  H   -1.73804456082069     -2.24043026627426      1.32616857699686
