25
Coordinates from ORCA-job ./opt_b97-3c_parallel
  N   -4.16633772817652      1.35646367361819      1.07962983448754
  C   -3.11476281243001      1.18229716306462      0.61686317209811
  C   -1.83408652910736      0.95180736734853      0.04349334644058
  C   -1.07538807148625      2.07471508780709     -0.12701414916570
  N   0.05452204771176      2.29071686618580     -0.83989038320938
  C   1.18190886834010      1.68706861942608     -0.82048223735057
  C   1.63108689989636      0.54524244828909     -0.07651265559376
  C   2.97267294631593      0.30478196733676      0.21360110522920
  N   4.02495530286873      1.12538942102270      0.12904636260177
  N   3.21966713728341     -1.01721598472988      0.62774243450767
  C   2.07726387544509     -1.62068518625048      0.52753911231713
  C   0.98653146109834     -0.72738370442068      0.10428913059366
  C   -0.28590107282470     -1.17669000273454     -0.11985994256412
  C   -0.61756648600356     -2.59366592739199     -0.23966230923761
  C   -1.94123362709088     -2.69927444855016     -0.49805470052219
  C   -2.52402049068647     -1.37287549058936     -0.48377718068736
  C   -1.54966382707944     -0.43489942195592     -0.28328232584891
  H   -1.50746538816064      2.99868927181345      0.24314803346905
  H   1.92602476902797      2.11031078295400     -1.49966398895736
  H   4.92240533753804      0.78208933800051      0.42070878444888
  H   3.91178447786531      2.11346963895266      0.00190029481937
  H   1.96729412274554     -2.65847300427865      0.80334254513039
  H   0.09733393049727     -3.39852040296154     -0.22689986518658
  H   -2.48670752652498     -3.61052177338764     -0.68738881814331
  H   -3.57881048476308     -1.16124884766860     -0.56509603577650
