27
Coordinates from ORCA-job ./opt_b97-3c_parallel
  N   -3.24158648173136      1.89144590520063      1.65067205606273
  C   -2.36589537651518      1.58496839379661      0.95256995957719
  C   -1.25600965466706      1.22051618751935      0.13562935454921
  C   -0.50310394291403      2.25773933826421     -0.31090943901071
  C   0.70694450817350      2.31005095295489     -1.07448300964023
  C   1.82541949733734      1.56410338858355     -0.98559060614714
  C   2.14366749258424      0.40579531750629     -0.20032730820557
  C   3.45495158734290      0.04812596461542      0.11421108115043
  N   4.58640425902417      0.74023732325976     -0.04229633163942
  N   3.57077995537539     -1.25762384896248      0.64081047985968
  C   2.37239877511529     -1.73775062816966      0.60159287357910
  C   1.37629254074077     -0.75590759036694      0.11568527324703
  C   0.04383583536081     -1.07325129879096      0.01834296436360
  C   -0.42924210133808     -2.45251849427501     -0.03727584826314
  C   -1.75664119561589     -2.44460304684758     -0.27653215697161
  C   -2.20451316483465     -1.05685275061128     -0.29769463113398
  C   -3.54500556597515     -0.69804927580983     -0.50360756875100
  N   -4.66201805598277     -0.46280734918785     -0.72172629034227
  C   -1.12229722702795     -0.21278972950328     -0.11902039399891
  H   -0.90620810709076      3.23750357919193     -0.07678916580426
  H   0.77678856393887      3.18229075270498     -1.71538713080374
  H   2.64681246839412      1.90882987463533     -1.60988400322228
  H   5.44596963173302      0.33038948363940      0.27687217629819
  H   4.57462584153101      1.72192256489569     -0.24784683589277
  H   2.14936842506516     -2.72533385465755      0.97655224271558
  H   0.20155675829795     -3.32389755425724     -0.00029304362627
  H   -2.40483900052176     -3.29039677142833     -0.43335009164937
