26
Coordinates from ORCA-job ./opt_b97-3c_parallel
  N   -4.69373431429516     -2.05170213184660      0.11868757461587
  C   -3.90260174575459     -1.20588800894948      0.01079937178949
  C   -2.94292653159531     -0.19652426491867     -0.11170713860456
  C   -3.18041241143234      1.17602424482524     -0.41077796632772
  N   -2.07894985763379      1.89941781861181     -0.44498693645020
  C   -1.03300892885809      1.03922143029526     -0.18995018744525
  C   0.22543389578414      1.56206860865021     -0.01396551851039
  C   0.39381318872519      2.98800618436765      0.16492071480820
  N   1.62455598447637      3.30763237431291      0.48821412329816
  C   2.34980283646580      2.14001634935976      0.44515656214182
  C   1.58021827447035      1.02293120113738      0.15832637126589
  C   2.18208741925321     -0.24650490220023     -0.11000906804277
  N   3.48657533589048     -0.19216423630487     -0.44460077612286
  C   1.62784291805085     -1.55049037433972      0.02953549095489
  C   2.57146478350519     -2.60062960454041     -0.12948213510635
  N   3.37752815000937     -3.42593620387114     -0.27501902262427
  C   0.34192532466037     -2.02997310439596      0.33498910911851
  C   -0.94934974740513     -1.55058691278388      0.33787176510146
  C   -1.55453045540649     -0.33988200785004      0.01458607771094
  H   -4.14816080110715      1.61835879168430     -0.59989588504978
  H   -0.40691123202653      3.70666366302685      0.12592884462038
  H   3.40272215694860      2.16755715874308      0.68077879808359
  H   4.02661605727953     -1.02884570757255     -0.58817143125024
  H   3.90140209332102      0.67896993791071     -0.71387156598595
  H   0.36794926555319     -3.09327806585055      0.54018280651491
  H   -1.67244120617980     -2.32319605450081      0.57298773989623
