31
Coordinates from ORCA-job ./opt_b97-3c_parallel
  N   -4.79442841285095     -0.87590184973098     -1.56136943421614
  C   -3.73728925810681     -0.74832928793902     -1.09375809698559
  C   -2.45503302730156     -0.57343280116232     -0.50754642031719
  C   -1.70596555146626     -1.73380229816107     -0.46064906224619
  C   -0.45901620123983     -2.11525116388791      0.02803715926472
  C   -0.18423092578662     -3.47683168484948      0.20950057463384
  C   1.13214357953858     -3.63615570379305      0.67663852632935
  C   1.73760990099973     -2.39659046747952      0.71114384419728
  C   0.79938333965182     -1.40055508482650      0.31181921239480
  C   1.15586321564615     -0.09438043595415      0.02915584380236
  C   2.49129864907807      0.33646357009961     -0.18308101941070
  C   3.65969782663301     -0.40024849552056     -0.37371375859529
  N   4.69750879042041     -0.90201238369692     -0.54643454178047
  C   2.48632212577990      1.74311202522335     -0.33597708361279
  N   3.55780358914679      2.48665379996701     -0.60445031557687
  C   1.15937726573616      2.21737842096272     -0.18658957953803
  C   0.30755111223910      1.15222262714964      0.00674121465528
  C   -1.05129104915914      1.38468362905069      0.39453256941665
  C   -1.23831695199901      2.65680610954958      0.98940937436013
  N   -1.44163273872688      3.69143135571248      1.48244326195850
  C   -2.25989196338261      0.71165161614423      0.12339049490005
  N   -3.40631872452223      1.35019518362448      0.44749836534219
  H   -2.25971099169477     -2.58173996915988     -0.84846632961191
  H   -0.89496693769127     -4.26930505898574      0.03118522048045
  H   1.59298548528581     -4.57101788795343      0.95407630018003
  H   2.75147245098989     -2.20382145109442      1.01361280671377
  H   3.48599101662610      3.47838990997575     -0.73609372928101
  H   4.46085451158424      2.05893854983157     -0.72265467372536
  H   0.87257804281680      3.25542006191698     -0.20476215956650
  H   -3.39961585186799      2.30617369379594      0.75743660380699
  H   -4.29783937547498      0.93332447069069      0.24893196912799
