32
Coordinates from ORCA-job ./opt_b97-3c_parallel
  N   -5.28719225175670      1.40974718708668      0.17407750653669
  C   -4.15064564675119      1.54251815291796     -0.03708599923480
  C   -2.78782717724490      1.71612446645511     -0.29462279571540
  C   -2.18107771420546      2.89850128270441     -0.88286515213943
  C   -0.82715434302461      2.79529729644613     -0.82506342472008
  C   -0.49617908829006      1.49745211385641     -0.29937388772607
  C   0.77614748747981      1.00096931544323     -0.15486353925384
  C   1.91023582532297      1.89217490291184     -0.01640104327427
  C   3.02415965923179      1.14872173488210      0.23202476723421
  C   4.32391658756911      1.58072611130628      0.52854716559633
  N   5.42723036002951      1.85682354547819      0.76948198311881
  C   2.65196905613046     -0.26580639783009      0.15148907696108
  N   3.56148908581026     -1.24066895923790      0.28544644746620
  C   1.27574107093526     -0.35521764973696     -0.07209650031258
  C   0.62680543679963     -1.57417604993237     -0.50967439190423
  N   1.41817962280076     -2.39158548362259     -1.28878600321384
  C   -0.62673302810128     -2.00597753523851     -0.14714054448630
  C   -1.09394289374344     -3.22556707858063     -0.66790460378436
  N   -1.44354833564527     -4.25003164558129     -1.09945921431987
  C   -1.46521676583956     -1.38471867229707      0.89982992749092
  N   -1.78472558508026     -2.20185739198601      1.93329718364717
  N   -1.97275395572326     -0.20241561742592      0.90159781310205
  C   -1.78125368538606      0.83806899669212      0.07025410146657
  H   -2.74514472258628      3.71597717311387     -1.30302426719225
  H   -0.12015176670299      3.49422649413273     -1.23867604453689
  H   1.84991680112185      2.96596932416232      0.00646561896520
  H   4.52635194765777     -1.02181698804015      0.45850046389768
  H   3.29277886696170     -2.20410180986423      0.19262900159822
  H   2.02370543393178     -1.91727620860852     -1.93844479152832
  H   0.97274600876213     -3.20710305630003     -1.68160430514185
  H   -2.55524353757599     -1.92365598547154      2.51778070134395
  H   -1.58155566218737     -3.18300862733524      1.87461014655961
