31
Coordinates from ORCA-job ./opt_b97-3c_parallel
  N   4.59716125809143      1.16897167381195      0.48422391268265
  C   3.32780819003577      0.74424480229129      0.24692532253198
  C   2.98914269160765     -0.64009187273308      0.03478484490453
  C   1.63801009671276     -0.73611243455586     -0.14885348394144
  N   1.05282179561057     -1.86730037633933     -0.60887861367991
  C   -0.07523870173450     -2.40776749129022     -0.28179641979114
  N   -0.30039604348559     -3.66429297207057     -0.81375008598797
  C   -1.08365048314280     -1.99602573131755      0.66477483856627
  C   -1.74058757966025     -0.80745644202757      0.74861780217082
  N   -2.88141368618583     -0.76505851794581      1.56061232144081
  C   -1.49545353350606      0.41687170796500      0.02258147957553
  C   -2.49504463432379      1.34217055960250     -0.30056841627118
  N   -3.85865042368468      1.21992511059706     -0.16415793821210
  C   -1.88295374034116      2.56040824672455     -0.75857630958750
  C   -0.53339396535514      2.42534091864787     -0.65867512402532
  C   -0.22328523972633      1.08662320388229     -0.21357866005002
  C   1.08408637962906      0.66910214066109     -0.06531818344145
  C   2.19284313122234      1.52817616526547      0.12712610170345
  H   5.24834642626517      0.50604725928414      0.86619244354829
  H   4.72532621256358      2.11278149407191      0.80463297169835
  H   3.69062348505534     -1.45182589763591     -0.07377755008930
  H   0.35903247001541     -3.92226177119159     -1.53080980434172
  H   -1.25694841573839     -3.89952008840619     -1.01615932292256
  H   -1.46888446356114     -2.80937407307239      1.27165302593981
  H   -3.00846820750049      0.11132688553898      2.04244501293039
  H   -2.97421001550935     -1.55023183133741      2.18476662852770
  H   -4.40752917551433      1.78096927216732     -0.79312977968595
  H   -4.20537175275538      0.28250198170819     -0.04135070143884
  H   -2.42514806338079      3.41747948912614     -1.13070047249615
  H   0.20632539253123      3.14054393616974     -0.97751445956241
  H   2.13711309046551      2.58703234350797      0.31924708730436
