27
Coordinates from ORCA-job ./opt_b97-3c_parallel
  N   3.68509956955359      0.74234812534694     -0.09533016749521
  C   2.54285852160416      0.03473191029977     -0.00581412119894
  C   2.51140520813077     -1.38618204694330      0.15740204313963
  C   1.19833895551360     -1.75798037822747      0.17845420681157
  N   0.69839502523726     -2.99127381545148      0.42118650277643
  C   0.34059204826375     -0.53643669746234      0.00500780920804
  C   -1.02223885648861     -0.58969697810076     -0.16264435631323
  C   -1.76824507445110     -1.76496150490714     -0.58587496162280
  C   -3.09781976728808     -1.47328990974660     -0.52360906261422
  C   -3.25300854007654     -0.14007253828290     -0.01108015358045
  C   -2.02124977764038      0.44301494789665      0.16220432441641
  C   -1.84575011343515      1.71761419369071      0.80841953653437
  C   -0.89837876913392      2.66193326864852      0.64527562062953
  N   0.10694736609472      2.77291000428688     -0.28389374290870
  C   1.00347225873085      1.90083922632838     -0.54836185551310
  C   1.24290166021344      0.57475514644962     -0.03224124468862
  H   3.64984979539785      1.73358854717976     -0.25101448834681
  H   4.54521574189167      0.28037354495886     -0.32639870568162
  H   3.36576213523736     -2.01536395167582      0.35219671830784
  H   -0.26307559181122     -3.05628560171416      0.70837239270856
  H   1.31520485391341     -3.68195057583083      0.81093380261025
  H   -1.33552607769214     -2.63687761088616     -1.04786694401765
  H   -3.90476065759151     -2.11632054275452     -0.84174014207319
  H   -4.19572239085896      0.33622427225272      0.21453377065414
  H   -2.64697487227153      1.99125009402008      1.48721823762126
  H   -1.01206226745649      3.57297632975461      1.22579630404774
  H   1.72409782771327      2.22559877756968     -1.30707179511135
