24
Coordinates from ORCA-job ./opt_b97-3c_parallel
  N   4.00265318549333     -1.09628218857639     -0.33122208963591
  C   2.76484972719062     -0.62723146067771     -0.14276890328478
  C   1.58891125675750     -1.39358362565591      0.03905041149667
  C   0.54032062244634     -0.50049482618921      0.09554161681719
  C   -0.82049355306007     -0.85644080590700      0.14424890624015
  C   -1.24444050735874     -2.17137544419476      0.36012358971979
  C   -2.61896098599449     -2.27860434686992      0.09922465740192
  C   -3.09021145992383     -1.04207303691302     -0.31133195413787
  C   -2.03193184929579     -0.10174882982310     -0.26514825363766
  C   -2.30070525781830      1.23180657555779     -0.52353975323183
  C   -1.62812152933119      2.42494331977677     -0.30411942563465
  C   -0.35434267951828      2.72895801176314      0.16590971833833
  N   0.79599403644083      2.09606111520101      0.20147967726749
  C   1.22409020610503      0.87114029236300      0.01970456710162
  N   2.55059825417306      0.70406179601170     -0.14262245144869
  H   4.21637318744400     -2.07087197381333     -0.23818086414786
  H   4.75805193749566     -0.43972382533314     -0.41647782025326
  H   1.52847311721713     -2.46881585648804      0.02355518705716
  H   -0.60809498372951     -2.98266092525044      0.67521986768780
  H   -3.20883722978508     -3.17580533414833      0.21117471177012
  H   -4.10862432965664     -0.79540705704047     -0.56841934053266
  H   -3.32094366355811      1.38404380721176     -0.86277135586474
  H   -2.24576241739061      3.30699341762236     -0.43091029474593
  H   -0.25846570754293      3.76136355447326      0.50166151675801
