33
Coordinates from ORCA-job ./opt_b97-3c_parallel
  N   -3.00091811748113     -2.51192776171192     -1.63744556417918
  C   -2.19662358417795     -1.99029463460340     -0.97607039102869
  C   -1.14744895036764     -1.44204709712569     -0.20925755680507
  C   -0.07591200245880     -2.29569425482035      0.05463378298337
  N   0.00255170563021     -3.49580159442919     -0.56988229207368
  N   0.88882795827012     -2.11700613731692      0.99798001820559
  C   1.91858672350641     -1.34299121910254      0.90804003183978
  N   2.97920322422621     -1.64434632481670      1.74378805944639
  C   2.08875903624929     -0.19478149597529      0.05797051938699
  C   3.33331230129578      0.36154808512759     -0.33866595543626
  N   4.54054278197448     -0.22368450637106     -0.29564915706111
  N   3.24931747943293      1.64939298637426     -0.77463186831232
  C   1.97698693949635      1.99166445622011     -0.60015116538835
  N   1.49361570946670      3.18930659848273     -0.89472542306721
  C   1.14690433027952      0.86677673006204     -0.10774850230268
  C   -0.20777933267090      0.97958764629704      0.11863317564552
  N   -0.79881794956022      2.23599093140873      0.21021335112667
  C   -2.09837869366275      2.03850281883059      0.32961599086262
  N   -2.99899303480840      3.03258308494278      0.44819638361335
  C   -2.43945599725376      0.63442815346474      0.29144688462172
  C   -3.74544227125297      0.16160819491698      0.43120598454919
  N   -4.86292910736828     -0.12165320325873      0.59375907462896
  C   -1.24169331328053     -0.06037506910534      0.15486311247834
  H   -0.77200549686887     -3.81355306273220     -1.12961754535665
  H   0.56465090015394     -4.19950103275035     -0.12681023025516
  H   2.76367244222546     -2.36772110950582      2.41167019440337
  H   3.47133648463336     -0.85926825386149      2.13913385140967
  H   4.61682201685037     -1.20647050242174     -0.10691257706401
  H   5.30507520341925      0.24585033533018     -0.74655183961446
  H   0.53563714357212      3.37434899144195     -0.60300113714921
  H   2.11724028294359      3.91052621774676     -1.21158457790894
  H   -3.93437682397724      2.80555029043492      0.73629151218111
  H   -2.66226886063812      3.95176249341912      0.67142946302035
