27
Coordinates from ORCA-job ./opt_b97-3c_parallel
  N   4.28856674381746      0.76195170953670      1.63999895230668
  C   3.37562758582639      0.78909801065540      0.92397811695205
  C   2.23970884344127      0.85662479903562      0.07339332577622
  C   1.83371841553333      2.08634035741318     -0.32167810289779
  N   0.92425830892461      2.40176988598455     -1.29732636046213
  C   -0.32326835508078      2.17067515336427     -1.23293401385666
  C   -1.04161199659902      1.40764280891741     -0.22820353590934
  C   -2.36019685968313      1.71328879647780      0.22296143140745
  N   -3.00658166838963      2.85948331637708      0.04162145144139
  N   -2.97494821377458      0.69026263504020      0.87345359733130
  C   -2.12594359338606     -0.32339750164089      0.79304427927337
  N   -2.34782755341095     -1.45891771723652      1.42711946964106
  C   -0.85256806764308      0.04961933343971      0.06128768783211
  C   0.22147342405059     -0.77929536896217     -0.24503962196519
  C   0.23804386492047     -2.21299976432332     -0.43700475396996
  C   -0.84485316989705     -3.08179096785696     -0.59193022773794
  N   -1.75873997072279     -3.80112305822717     -0.66791723306574
  C   1.57098615829010     -2.55827404245750     -0.60541993366203
  N   2.39626682504836     -1.48731196632514     -0.46813920733156
  C   1.62929137684505     -0.41374083276722     -0.30370094015808
  H   2.37396091954085      2.94947733522782      0.05088639686197
  H   -0.91994165478393      2.54887056414661     -2.06621137347115
  H   -2.55404547537733      3.66473391043362     -0.34993813458092
  H   -3.94351439591811      2.95494723487083      0.39276610905370
  H   -3.24156007613281     -1.57761002705736      1.87571906870619
  H   -1.82088098476394     -2.29202623153635      1.22441945077498
  H   1.95899930962470     -3.53490926963015     -0.84729080199016
