23
Coordinates from ORCA-job ./opt_b97-3c_parallel
  N   -4.72465556896480      0.65597058500869     -0.00402385964194
  C   -3.56624623439243      0.58003042285051     -0.00378636304553
  C   -2.14092698517912      0.48330172951939     -0.00308694203821
  C   -1.50204081596209      1.73364935894230     -0.00291371930174
  C   -0.19705806470288      2.17564407999722     -0.00205486534470
  C   1.06473099374541      1.58503713722272     -0.00084314120213
  N   2.13115923200951      2.40775593027671      0.00006476826389
  C   3.19469959804544      1.57514822071668      0.00137492557960
  N   2.94459428293639      0.26675604242188      0.00134105814374
  C   1.58715194590644      0.18073577276586     -0.00006396777376
  C   0.97898468379818     -1.06415937979661     -0.00124314459366
  C   1.73514595165115     -2.24931683658276     -0.00106170524692
  C   0.87791716678631     -3.34300958150580     -0.00190930251670
  C   -0.44629756826360     -2.89342988787520     -0.00258072619066
  C   -0.46685471397537     -1.49085817518263     -0.00227007543531
  C   -1.68567943264303     -0.84249559472199     -0.00289450346412
  H   -2.21185235009699      2.55138919187760     -0.00352636124100
  H   -0.10644228759516      3.25489344723360     -0.00226792076816
  H   4.20525736147395      1.95821415867193      0.00241838845349
  H   2.81047210584573     -2.26759923297815     -0.00034213686122
  H   1.18538240624889     -4.37763059580836     -0.00201319055550
  H   -1.32849677922056     -3.51381915212254     -0.00329936016251
  H   -2.50889325945134     -1.54780944323105     -0.00339854385694
