31
Coordinates from ORCA-job ./opt_b97-3c_parallel
  N   -1.08261285867325     -4.89338598461064     -0.63347275958790
  C   -0.70621669947210     -3.83846924400852     -0.31453535791313
  C   -0.28558130601281     -2.53764860962104      0.05271922829600
  C   0.88917685451090     -2.54380816595027      0.87154050084733
  C   1.92938523329974     -1.69542149105533      1.05170133013824
  C   2.29321514786558     -0.46421508270080      0.44380639189824
  C   3.58127004603798      0.00117462999261      0.42665726069922
  C   3.54148925450999      1.28535680425317     -0.21573968757004
  N   4.60053909586183      2.07530950427491     -0.45384145881207
  N   2.30843731079124      1.65946082955401     -0.54245944873815
  C   1.48689887935876      0.63376766718371     -0.16200711530498
  C   0.11448368743492      0.81207927202328     -0.16947000411992
  C   -0.39467250466731      2.15022365447211     -0.20150842111582
  C   -1.75033042915914      2.11134795647556     -0.00502324274914
  C   -2.63645930130709      3.18525425195390      0.15420370064124
  N   -3.42908975345689      4.02459424701941      0.29630287620965
  C   -2.16266409244055      0.72340310076717      0.06727925462754
  N   -3.47773761158309      0.38195322764719      0.17041876894735
  C   -1.03008956484087     -0.09151677769821     -0.04403856346224
  C   -1.13317241010504     -1.49942438139532     -0.34025705677150
  N   -2.28170287299063     -1.84907316688510     -0.99970159327415
  H   1.02102016701148     -3.49448386369812      1.37664696706639
  H   2.70450288995548     -2.08640196450474      1.70134538289089
  H   4.45045937511268     -0.49630897031998      0.82724378890976
  H   5.53409776485810      1.71946233843478     -0.37240981645956
  H   4.45992978939740      2.90223299805624     -1.00747258105259
  H   0.22435447708823      3.02625279615537     -0.25978337322776
  H   -4.10526630475193      1.10041566330056      0.49195275515802
  H   -3.69653096060203     -0.54617120884357      0.48849096388799
  H   -2.71606374453874     -1.15539692327621     -1.58147639348647
  H   -2.38657237459192     -2.80125317839651     -1.30948825107201
