34
Coordinates from ORCA-job ./opt_b97-3c_parallel
  N   -4.41427844792061     -2.58379224561954      0.87695049107015
  C   -3.49562044632939     -1.90799553026870      0.63328963083229
  C   -2.40669767251140     -1.09617098689266      0.32783974400222
  C   -2.47889468383769      0.25803481933425     -0.13827556810905
  N   -3.64542173835227      0.88883496148898     -0.37648108176320
  C   -1.18407252749934      0.77933839447576     -0.25746770261478
  C   -0.86494184040059      1.99656608165601     -0.97653455472106
  N   -1.63044939486712      2.24907075646567     -2.10265082379587
  N   0.02119582069068      2.87793029505477     -0.66048684324064
  C   0.61011760798273      2.86238161335382      0.58775148999332
  N   0.16783403988710      3.84910970868732      1.41169540461515
  N   1.58200148131808      2.11463726767474      1.00314720172473
  C   1.97743403119364      0.95786009421892      0.42549910678879
  C   3.29838175453705      0.56352128626586      0.38951096848659
  C   3.36499298973486     -0.78972092673859     -0.01781742415599
  N   4.49068895868236     -1.49777175286769     -0.21444835815639
  C   2.05286780940752     -1.29595206138317     -0.18681136164297
  C   1.81450158389183     -2.52642308731907     -0.78166816837823
  N   1.64785385192841     -3.58882849245119     -1.24232376988402
  C   1.13407536633443     -0.22022862772517      0.05714983051960
  C   -0.24703189815705     -0.26933760772121      0.06792663276478
  C   -1.05891436479775     -1.44932398818352      0.41696621803524
  N   -0.61827396479724     -2.60537876424815      0.93348778188247
  H   -4.49089689204273      0.34790406081822     -0.42436651460044
  H   -3.62595849779805      1.75923129987985     -0.87939397515858
  H   -1.30595903049666      3.04209355218342     -2.63480986164719
  H   -1.83855421356147      1.44217244744709     -2.66950317066002
  H   -0.30683384049703      4.62454521867286      0.98658988672746
  H   0.73451660625704      4.04703106038405      2.21816404708763
  H   4.13126141652518      1.17532788574839      0.69450615858328
  H   4.43031724734657     -2.41196133249962     -0.62951260324549
  H   5.36876750163455     -1.02106348180221     -0.30454919215594
  H   -1.29949044051008     -3.32627606333787      1.10416648304334
  H   0.30559399512477     -2.93739721565122      0.71895821147278
