29
Coordinates from ORCA-job ./opt_b97-3c_parallel
  N   4.72131649164360     -1.48965180336580     -0.06100641199502
  C   3.71818483074489     -0.89735032228633     -0.06783977414460
  C   2.57885347063698     -0.09519236378720     -0.11377404974214
  C   2.61853459463406      1.33493827598492     -0.39144150086254
  N   3.73850875042721      1.94600935774985     -0.81953240743109
  C   1.36143476697581      1.87211792049140     -0.19572830564833
  C   0.46333772683210      0.82208259646719      0.11397302816574
  C   -0.90684817647162      0.95300949296372      0.25051670921255
  C   -1.52909578864067      2.22819201829693      0.50346653224567
  C   -2.88111566676418      2.07251804619674      0.53087892119039
  C   -3.18547197671755      0.70285269147491      0.21346814090403
  N   -4.46690107677288      0.25570218126165      0.02484707286297
  C   -1.98985219570839     -0.00609178215739      0.06835417548963
  C   -1.90063460161765     -1.34181216355813     -0.47388592652851
  N   -2.86682416943726     -1.68065987662666     -1.39587538870486
  N   -1.10357932091142     -2.29966918219832     -0.12094798351489
  C   -0.10885556474515     -2.29336070523348      0.77494809409798
  N   0.96857091303777     -1.58574268174541      0.84219334158142
  C   1.28176131849242     -0.43263434415271      0.22944949687768
  H   4.60911524005965      1.44357446043237     -0.80054277269866
  H   3.79684945005780      2.94749545004414     -0.81217380565658
  H   1.07916817503573      2.88697399196494     -0.41990689432113
  H   -0.98759101247760      3.13100012764417      0.73160324672014
  H   -3.61759339484484      2.83184462484221      0.74833359466797
  H   -4.60196800500863     -0.74179798033773      0.02554238520563
  H   -5.18894158035696      0.76700950074634      0.50230770893714
  H   -3.19104944817272     -0.94764118827947     -2.00366966022372
  H   -2.72439550187156     -2.57447408019525     -1.83759342867163
  H   -0.14962355566038     -3.12270613273850      1.47988063388502
