25
Coordinates from ORCA-job ./opt_b97-3c_parallel
  N   -2.85956959192961      2.66956155507172      0.12510560519268
  C   -2.26883302580122      1.66493646128947      0.13004808087790
  C   -1.69129752016019      0.39663600689632      0.12540299870364
  C   -2.48580734451002     -0.78375592203075     -0.02208751597603
  N   -3.81349461937436     -0.81198385442833     -0.12238866089144
  N   -1.75108780730175     -1.90070283536522     -0.06147886181593
  C   -0.45528926102245     -1.52168324369228      0.04445558884524
  C   0.46958208635717     -2.53190856642964      0.25048630331407
  C   1.85521149758376     -2.56694257387118      0.40370235016287
  N   2.82420058837519     -1.79545651097829     -0.01697768701137
  C   2.91699870383855     -0.55717163809495     -0.44619285978661
  C   2.16897393717935      0.58418671139495     -0.18741068959235
  C   2.78618276435425      1.84636951728006     -0.26746359273637
  C   1.89160211267458      2.81684007581454      0.17453566267322
  C   0.66945080928744      2.20647562753154      0.46487492286451
  C   0.76551440704206      0.82103952392840      0.24498963162453
  C   -0.34998656072306     -0.02119127706798      0.14572426225142
  H   -4.35336974511506      0.03466998287429     -0.11778791838283
  H   -4.27748110770937     -1.69081854008171     -0.26429951620094
  H   -0.00947856128906     -3.49329355827494      0.39132817080313
  H   2.21971253557043     -3.47408014989815      0.88208475173543
  H   3.84325684860650     -0.36943842437211     -0.98667796683188
  H   3.81306524291143      2.00523575114285     -0.55729439553005
  H   2.09643988858691      3.87272874249405      0.26140288813951
  H   -0.21920884353203      2.73003259406743      0.76962076376774
