29
Coordinates from ORCA-job ./opt_b97-3c_parallel
  N   4.43983656332122     -0.67877684065060     -0.41541246917399
  C   3.16720082115838     -0.25712075294873     -0.22723528928596
  N   2.93174403138673      1.02812429935240      0.19986355679097
  C   1.60656783370109      1.12142641440065      0.26017157549121
  C   1.00853475268175      2.27870185890085      0.83414184551737
  C   -0.24901924025140      2.76681619814126      0.70403820574019
  N   -1.25346922876843      2.45639708669837     -0.14485011313497
  C   -1.82689550208574      1.33091142331721     -0.39722416521305
  N   -2.94651649200749      1.41865173362900     -1.21902838694050
  C   -1.52842591025541     -0.00021624701010      0.08898241216089
  C   -2.50096412855946     -1.01193959727345      0.25081399449328
  N   -3.84583489141785     -0.84051642407510      0.26305792650365
  C   -1.88950010588810     -2.29254414922456      0.33218559966000
  C   -0.53810509307150     -2.12384279700523      0.14862293039116
  N   0.43268688709499     -3.04860019523515      0.16913009532777
  C   -0.25390064813560     -0.66604068058505      0.02534734241337
  C   1.03298953291146     -0.18990976665697     -0.09981901998106
  N   2.10230464338823     -1.02315222820310     -0.39703659371342
  H   4.56917867671365     -1.50060614357594     -0.97765549992397
  H   5.13154366034910      0.04300712078207     -0.51258276123892
  H   1.69066233019720      2.86733307676567      1.43409608272103
  H   -0.45858378824137      3.66874600387399      1.27618621822614
  H   -3.04339192357409      2.32740910915144     -1.64461136736415
  H   -3.08431155020818      0.64972468127262     -1.85490140870043
  H   -4.20936150877765      0.09413293527712      0.32702219947045
  H   -4.41908615731798     -1.57330622530514      0.63861409659080
  H   -2.40613441007162     -3.22564928704683      0.49463430083150
  H   0.20058797136857     -4.02369558847396      0.20186725240650
  H   1.35839011705986     -2.73581787589277     -0.11668756266505
