30
Coordinates from ORCA-job ./opt_b97-3c_parallel
  N   -3.18281519323803      2.52477488179525      0.98277098164425
  C   -2.28430432226759      1.89802958134606      0.59186638775187
  C   -1.09823934496173      1.26364109614976      0.13777627638956
  C   -0.06122428767427      2.15894779795446     -0.25492529840542
  N   -0.39463533828989      3.48439627206208     -0.25018905335700
  C   1.20910099190434      1.90680550839219     -0.80103676908657
  C   2.18540398369935      0.93754560778454     -0.62794817164356
  N   3.41882738249419      1.25958151861655     -1.15043875546770
  C   2.16520737486809     -0.28920105416443      0.09631707284154
  C   3.33608539713635     -0.88010956668819      0.58203452642354
  C   3.03845144110553     -2.17008509606045      1.06697243032032
  C   1.70047883855579     -2.42314289962061      0.84170520338760
  C   1.09844908942699     -1.27359559815870      0.25791686854363
  C   -0.25581520924491     -1.25926564349375     -0.09278335024369
  C   -1.04520579242256     -2.39535909868254     -0.23105545392599
  C   -2.37668723374821     -1.95417355762502     -0.25891548294497
  N   -3.48967934503887     -2.68475533802984     -0.39819385950505
  N   -2.49172504846142     -0.60331965221373     -0.13145371213096
  C   -1.24738876191835     -0.12014840654292     -0.07730222940871
  H   0.34140242570513      4.16399587847686     -0.22385152271524
  H   -1.28360688313538      3.77551979915943      0.11872890238277
  H   1.56335096079856      2.76134172380915     -1.36931016583573
  H   4.00830377025222      0.49191478157870     -1.41736887681125
  H   3.48114284450704      2.06514750394075     -1.74709893908057
  H   4.29862941819759     -0.39705115869588      0.64212698700030
  H   3.73453344974138     -2.82732246498556      1.56559340230650
  H   1.15923094814952     -3.30372164062727      1.14560569857248
  H   -0.69778049233181     -3.41112215361605     -0.30671038723021
  H   -4.36933542793382     -2.20621137407822     -0.47705387207184
  H   -3.45136717787576     -3.66279993388700     -0.61220834650016
