28
Coordinates from ORCA-job ./opt_b97-3c_parallel
  N   -0.22759122496683     -5.07727075090314     -0.72484441644664
  C   -0.30657253974341     -3.95461893933750     -0.43326314748917
  C   -0.42693710336524     -2.58608981382217     -0.07554776802074
  C   -1.65138953289737     -2.28201781736940      0.62710975196451
  N   -2.35605543429930     -1.22165688805656      0.77478229778162
  C   -2.25651624383520      0.04653969430723      0.31904683224442
  C   -3.36798267237509      0.80420763333796      0.08651232401366
  C   -2.89730602454221      2.13547704527540     -0.19184497102507
  N   -3.67542774561744      3.19045430285373     -0.44891939840025
  N   -1.57276918024780      2.24841298714805     -0.13407999847324
  C   -1.09589149728631      0.99551062325242      0.11660282278846
  C   0.26073682701446      0.75198401742356      0.09956067886637
  C   1.17948694500468      1.83800333400756      0.05260558743584
  C   2.46548254664387      1.34711849907032      0.01382250517873
  C   3.66956290661241      2.06479811855688      0.02828137770762
  N   4.70618795017257      2.59151074375515      0.03843072686027
  C   2.40068450217487     -0.09208493173823     -0.01503680577330
  N   3.49636420801753     -0.87463282580265     -0.11080767293468
  C   1.04773908862577     -0.48918148848943      0.02557582327812
  C   0.70880114632501     -1.81813111391583     -0.23576352412899
  H   -2.07438605218152     -3.15731591602277      1.11968958550902
  H   -4.38878852382190      0.47592328598903      0.18837807349756
  H   -3.24654361298532      4.07943080447220     -0.63775661780790
  H   -4.66369852124918      3.09417319862159     -0.58350310149201
  H   0.89015385087196      2.87292179444202      0.08211622248866
  H   3.45967726060447     -1.82857482458452      0.19723602698315
  H   4.40052930238142     -0.43927600436076     -0.05016159988132
  H   1.54183649336496     -2.40169082621005     -0.61597296912494
