31
Coordinates from ORCA-job ./opt_b97-3c_parallel
  N   -3.71048872510766      3.03053181294852      1.15260370455035
  C   -2.93649647363402      2.26959407128562      0.73264637868984
  C   -2.02112651485196      1.34719100225800      0.16791990797051
  C   -0.70199327404464      1.56903225998157      0.42227963139799
  C   0.47165252178951      0.85856632194641      0.07498857192710
  C   1.71353894469948      1.51905191108747      0.02865976817531
  N   1.91716306860343      2.84548672579735      0.05907082058993
  C   2.78368246015569      0.56379510465255     -0.00772636408772
  C   4.13339715546993      0.85496522007190     -0.19294298296827
  N   5.26175752216826      1.10397590715863     -0.34508777997052
  C   2.21309186997756     -0.70181414394707      0.05954771751058
  N   2.87364446586597     -1.86044053839058     -0.03158942089546
  C   0.74556041085804     -0.55960915184243      0.14133036529001
  C   -0.09667826806882     -1.63175470412872      0.30884675022717
  C   0.27082836094227     -2.94498740728309      0.75626820589940
  C   -0.79883056373564     -3.75093162820467      0.48332752236271
  N   -1.81432301366975     -3.09255278829518     -0.17258584193190
  C   -1.48186916103539     -1.80726514627035     -0.22598527374784
  C   -2.33267993758262     -0.93099039829993     -0.94438679259387
  C   -2.61697659663013      0.39198096945003     -0.78822694488365
  N   -3.58536778493316      0.95576279067689     -1.57596278245821
  H   -0.51781298076283      2.47309343251270      0.99980720039018
  H   1.17232175184842      3.47604378381524     -0.17400038066672
  H   2.85133100940423      3.20648712878665     -0.02317230706777
  H   3.84398682190866     -1.85174447531334     -0.29679375161930
  H   2.35141103973609     -2.70434525149824     -0.20314496596955
  H   1.12431328060180     -3.19779066136689      1.36323552508241
  H   -0.92505891505513     -4.78926686853083      0.75283143108069
  H   -2.97747936698238     -1.46772352192500     -1.63218921572759
  H   -4.20766559847814      0.33739707648033     -2.06678511576491
  H   -4.00404763075743      1.81992481818690     -1.27683447789142
