28
Coordinates from ORCA-job ./opt_b97-3c_parallel
  N   -4.21803331022199     -1.77613245253385     -0.92847840905182
  C   -3.19644734516458     -1.40477389289254     -0.50778753696151
  C   -1.96402700663315     -0.94077330247482     -0.00697664283268
  C   -1.33110204859452     -1.86234937178657      0.95701673854192
  N   -0.14769888282478     -2.31342506569710      1.05388579226776
  C   0.95124626094082     -1.99522104054950      0.28884251560250
  C   1.94320360241258     -2.89989706905975     -0.01635382900087
  C   3.02882563126424     -2.14928781955493     -0.55289326462254
  N   2.79626755332588     -0.84925841989281     -0.55526472856097
  C   1.48615555533249     -0.69574463922377     -0.09162271927251
  C   0.92670985685623      0.55685771173287     -0.00256127927364
  C   1.75714730423832      1.80498357835671      0.03670719715592
  N   3.06517316363084      1.79853875624937     -0.10672062575243
  N   1.03045867200253      2.88657038063276      0.28159785585356
  C   -0.25903834798471      2.44197928166967      0.31293388270857
  N   -1.23242540834075      3.32215529035360      0.53040767346821
  C   -0.39981218864322      1.02865451196266      0.12176338888799
  C   -1.62860681009382      0.37318397481567     -0.24133615796325
  N   -2.56451987301915      1.20772529263104     -0.84496043828201
  H   -2.03691690730754     -2.27633660809052      1.67814336491168
  H   1.91752749182826     -3.95842916371703      0.18256572529273
  H   3.97215352380623     -2.54399120693197     -0.90401369563126
  H   3.48471368991779      0.89591322768204     -0.35749162708216
  H   3.58210622686865      2.65957045857087     -0.05513112592910
  H   -0.99563118960143      4.29077390865670      0.65076575981454
  H   -2.19425252802031      3.02877649050526      0.51468707857182
  H   -3.39724577034172      0.73945255274444     -1.17181676311502
  H   -2.18230134613332      1.82111903354164     -1.54838942794582
