26
Coordinates from ORCA-job ./opt_b97-3c_parallel
  N   3.73625293958040      2.64004532796679      0.17264074599360
  C   2.72683486041035      2.06558207816235      0.15793072692530
  C   1.43777329885295      1.46883027028433      0.12695152522166
  C   0.40367952678286      2.41016856260495     -0.14255698857604
  N   -0.85130296360958      2.43468820705678      0.14931204214254
  C   -1.80092554486371      1.59412325829604      0.52170096427227
  C   -2.01002741873833      0.28997772326955      0.15442612017636
  C   -3.30940232738715     -0.31415545184134      0.09498992921614
  N   -4.50443126934539      0.24681655637715      0.42200944512141
  N   -3.25623835364566     -1.57319999962926     -0.36578092760681
  C   -1.95026133862753     -1.84342158090362     -0.57212205324084
  C   -1.09280291489872     -0.77284982782686     -0.28987863440277
  C   0.29445293076357     -0.92965094842931     -0.11087550634675
  C   0.96014294669276     -2.14329710628563     -0.14962427442584
  C   2.30692900015317     -1.88333507913778      0.17483500525432
  N   3.29827705960746     -2.76523127227824      0.30277837211394
  N   2.56108305323093     -0.56903499715704      0.39793918789839
  C   1.40249007279687      0.07149588181381      0.21151760178859
  H   0.75917911023942      3.32273233191258     -0.61656367743898
  H   -2.59265442816120      2.08256654561130      1.08771104946408
  H   -4.59932968698618      1.24393344402372      0.36064601090832
  H   -5.30675327310962     -0.26787181641628      0.09934653376554
  H   -1.65869903806318     -2.82903647001852     -0.90058136023622
  H   0.52346804139588     -3.11567402703373     -0.29664361658211
  H   3.16890135506793     -3.74152769712958      0.11725912502958
  H   4.21558550514871     -2.43053822658938      0.54035359516445
