25
Coordinates from ORCA-job ./opt_b97-3c_parallel
  N   -3.78556737834067      2.06543729340521     -0.28543338774742
  C   -2.69735082742250      1.67458432668181     -0.18920614224788
  C   -1.31391304054955      1.32298124827750     -0.07875097497703
  C   -0.49373293505378      2.46450456261470      0.00938422447811
  C   0.84930711335593      2.74051845145298      0.13122364320104
  C   2.01385186782175      1.97234800029693      0.14210576460620
  C   2.30205647802248      0.63324949404488      0.03892046625652
  C   3.65968460031143      0.21089908267184     -0.02740400465006
  N   3.78179704690675     -1.10129816879127     -0.18459010551991
  C   2.51572157737139     -1.59992596079215     -0.19874147687758
  C   1.53057591373547     -0.62113720701161     -0.06490629460399
  C   0.15553180356456     -0.92582544889160      0.02431468316962
  C   -0.33805737552347     -2.21315700734935      0.09762642733955
  C   -1.74678614998854     -2.11698050414284      0.06349045543576
  N   -2.63262962400131     -3.11088497120890      0.11217372482893
  N   -2.18333144754546     -0.83944910701272     -0.01983355477961
  C   -1.09026846988416     -0.06287297683050     -0.02843554372941
  H   -1.09007383093557      3.36845508600683     -0.00915677088768
  H   1.04621196326525      3.80299029405191      0.20496711539703
  H   2.90985425028682      2.58070341887151      0.22299510971603
  H   4.52148028693637      0.86212849143054      0.01345042178413
  H   2.36288167091818     -2.65978725265499     -0.32598251915609
  H   0.23336723489918     -3.12169710804122      0.17291417552683
  H   -3.61273375479257     -2.88932861954661      0.08842123968949
  H   -2.35241160925802     -4.07012268053284      0.18886946744745
