34
Coordinates from ORCA-job ./opt_b97-3c_parallel
  N   4.80835922891051      1.09247917895456      0.73757648872734
  C   3.81748379005903      0.53906388380016      0.46675956163383
  C   2.65953273750716     -0.15496194005528      0.12352116160991
  C   2.65002486652195     -1.50127736055894     -0.39328040190991
  N   3.78238936244817     -2.22282630726401     -0.59224602914867
  C   1.33831790121117     -1.88290669043247     -0.60621985309099
  C   0.48278647315220     -0.78926159586136     -0.27239692898139
  C   -0.88422183822100     -0.88201508998106     -0.07862490573650
  C   -1.55020879823472     -2.12957657850775      0.34122504800668
  N   -0.94218913914581     -3.31867405287275      0.55040791790484
  N   -2.83016113886559     -1.95146914025478      0.61568667178297
  C   -3.08453160916023     -0.63361867006204      0.33539936416495
  N   -4.36968342382076     -0.20861101074348      0.41833328838771
  C   -1.94115069397365      0.08776809052721     -0.05445092786287
  C   -1.97100754449345      1.39911571650663     -0.65992222273068
  N   -3.14279456742139      1.66869796938799     -1.36479159864436
  C   -1.05118198401359      2.39607211518422     -0.56278603611116
  C   0.08286535505375      2.53061781580678      0.31056229577045
  N   0.24406607298267      3.80414295596573      0.80041048234833
  C   1.05454866160940      1.61569896835019      0.65159357549161
  C   1.34659871580085      0.33966125562637      0.14142257666329
  H   3.73224568747162     -3.03035933478392     -1.18687461535354
  H   4.65476989669486     -1.72305506223095     -0.62624008192776
  H   1.02896800138987     -2.78256212236995     -1.11314461433123
  H   -1.43452327375512     -3.94566264895646      1.16612741623692
  H   0.06294820798413     -3.29628615748328      0.64511634606862
  H   -4.54054887558708      0.78046257533553      0.45280019390848
  H   -4.99134762763846     -0.80110388486820      0.94019443393974
  H   -3.52907267788137      0.88237856250082     -1.86231862463506
  H   -3.12847615006414      2.50845266058021     -1.92037562157011
  H   -1.26984324274040      3.29709595650384     -1.13040295215080
  H   -0.36232379978463      4.52929609956616      0.46635365889487
  H   1.15597777973255      4.10143263832350      1.10018708619152
  H   1.84684741147224      2.02099228086605      1.27431236545401
