28
Coordinates from ORCA-job ./opt_b97-3c_parallel
  N   -4.87042296639681     -0.62973320615736     -1.46399637305737
  C   -3.86659847729678     -0.70183913210194     -0.88357630537609
  C   -2.64432427349298     -0.77154693316734     -0.16275645588666
  C   -2.12644019561613     -2.01716002701416      0.01050603230151
  N   -1.13917701870458     -2.44312280139774      0.83588587245540
  C   0.09030740493110     -2.10418764741239      0.88614825343105
  C   0.81797145564984     -1.07206106277369      0.19613754123805
  C   2.21650840934322     -1.16946421190746      0.00520683825369
  N   2.94450350945289     -2.28367961266998      0.07950155848304
  C   2.78616904213916      0.12126019289581     -0.24010704056414
  C   4.12604357412824      0.38341930341785     -0.51403251180330
  N   5.25240661252514      0.58372423577139     -0.73624574375239
  C   1.75441155219692      1.04926979166129     -0.12971081618233
  N   1.82530148028327      2.35785716461885     -0.26932041602763
  C   0.47410359344050      0.30951830313383      0.12037388124020
  C   -0.72093122284083      0.96882867582624      0.31206273966423
  N   -0.71245071497190      2.35736996678313      0.50953405744985
  C   -1.96862293991675      2.72757077683794      0.61860492142565
  C   -2.86822379653544      1.63037726649088      0.46398704439912
  C   -2.10439801903065      0.50348878768044      0.28121103941741
  H   -2.65320760679567     -2.83751903219608     -0.46637002311293
  H   0.68216498111440     -2.66829744686872      1.61155952257454
  H   3.93729427994702     -2.25613193364779     -0.07559622296538
  H   2.50891399193730     -3.18611585799398      0.13130236188098
  H   2.71471924614249      2.81150280288857     -0.39634379359933
  H   0.97344187772567      2.87343766474955     -0.01573723563734
  H   -2.23257012873021      3.75889137779873      0.80483601416274
  H   -3.94469231001215      1.67934110253868      0.44923170538829
