30
Coordinates from ORCA-job ./opt_b97-3c_parallel
  N   -4.24637882202094      2.08170453268291     -0.55368995800600
  C   -3.13038003517044      1.82619077013801     -0.34392227731835
  C   -1.77021277753138      1.50455547919723     -0.09201741103711
  C   -0.99150533918735      2.63186280296612      0.16682937858031
  C   0.35170623403573      2.89672393031887      0.36571137333648
  C   1.50982973579648      2.14176142189959      0.22796828568302
  C   1.82929226537712      0.81641981903770      0.02135914684873
  C   3.19164346871168      0.44275682711710     -0.13237821053099
  N   4.24654207204120      1.30132459204842     -0.25762147982270
  C   3.33106586840116     -0.94835253128067     -0.05912337963643
  C   2.07965638235587     -1.51823851640829      0.12209457508638
  N   1.83074297084647     -2.82612530732479      0.27175121999156
  C   1.06329560737858     -0.45788607399836      0.12022280575699
  C   -0.27491338576970     -0.74907191070125      0.12460274014704
  N   -0.66869050311875     -2.08494803151339      0.19551610085076
  C   -1.97950659937866     -2.11064655271900      0.03429715733921
  N   -2.68610991625223     -3.25530278438433      0.07127800355192
  C   -2.54102525993057     -0.80986458417157     -0.13102914289032
  C   -1.51283447808951      0.09699521730417     -0.05030054881705
  H   -1.59423226065674      3.53233043233798      0.20538710565955
  H   0.54786825634682      3.94258064447587      0.56620950240972
  H   2.39185473750618      2.76836746473915      0.32408683935130
  H   5.11638093820475      0.89363152229283     -0.55169751683806
  H   4.06570047855333      2.18984001174810     -0.69047124755704
  H   4.26064776989161     -1.49295793734864     -0.13315764215978
  H   2.55604037929596     -3.49317314374557      0.08060876693165
  H   0.84455562366443     -3.08442560123557      0.25171431951642
  H   -2.19032262834094     -4.12845658369339      0.06179064646248
  H   -3.63829219740209     -3.26301778938787     -0.24226376740874
  H   -3.58616726465814     -0.58072396609122     -0.24937314218085
