29
Coordinates from ORCA-job ./opt_b97-3c_parallel
  N   4.54653353929892     -1.04648666393842     -1.06541344901954
  C   3.56673220520265     -0.59331645838240     -0.63514984884373
  C   2.37019566678054     -0.02909923721181     -0.11168241266909
  C   2.52713418352350      1.27867833229140      0.34012712976634
  C   1.68256769555411      2.24027218419240      0.86966972488101
  C   0.32484889504271      2.47474049037970      0.69140874228932
  N   -0.15698143839688      3.64088364309797      1.20142569982718
  C   -0.61716271392962      1.73452102395070     -0.10140899434989
  C   -1.69481139824837      2.34775864208359     -0.72259264132981
  N   -2.62115461055935      1.48882769248887     -1.21649662143561
  C   -2.24258269777383      0.27454834961591     -0.84728798379212
  N   -2.88762403324322     -0.79775638736703     -1.32883917020745
  C   -0.91065401088861      0.31253477583338     -0.13797669813687
  C   -0.16809316014220     -0.78517607651794      0.21473318157443
  C   -0.69418744612536     -2.11128082402690      0.47166476873527
  C   -1.98079713497943     -2.43208977388175      0.90186107173766
  N   -3.07399103666640     -2.69052759980399      1.21565257998968
  C   0.36261576011815     -3.01161520924796      0.43431769152323
  C   1.55338943864536     -2.32772524224231      0.14885672430096
  C   1.31254213924550     -0.96171933347960      0.09504546930150
  H   3.56575466601792      1.59112744884985      0.34270284979122
  H   2.20747555348392      3.03268366314421      1.39291886312486
  H   0.42992779414262      4.20825196051712      1.78666961626684
  H   -1.14694618054882      3.75362230158518      1.31937205280069
  H   -1.84332087321248      3.41187524220555     -0.83708384089002
  H   -2.93317737111203     -1.65574588519523     -0.80472579358104
  H   -3.71110216207434     -0.57434215420599     -1.86423239133160
  H   0.27697099732296     -4.06729534139634      0.63865857488715
  H   2.52233320882234     -2.78468384403803      0.03944737848944
