26
Coordinates from ORCA-job ./opt_b97-3c_parallel
  N   4.78714417031243     -1.51000222978639     -0.02173098514112
  C   3.69741712523357     -1.10994492807725     -0.01552190671558
  C   2.35783099170736     -0.61419820642228     -0.00808202846966
  C   2.27789271819438      0.77269265635147     -0.01092857185893
  C   1.25138447831761      1.70357084150607     -0.00622051890674
  C   1.56455537216180      3.07008083771416     -0.01125633307309
  N   0.47164929575942      3.87072398108893     -0.00591956437892
  C   -0.58221306098131      3.05933758771857      0.00261245993806
  C   -0.22100305813142      1.67846133470165      0.00318971158060
  C   -1.18325804622620      0.68722813943414      0.01186937041162
  N   -2.49029262909493      1.05324703357881      0.01940319368526
  C   -3.20227995890350     -0.07293093544755      0.02521168312592
  N   -4.53275696950430     -0.05489298648344      0.03314962254944
  C   -2.38301421701154     -1.25083207168573      0.02193554761328
  C   -1.08335469132024     -0.82370890856697      0.01353225187239
  C   0.01379702187445     -1.74676501707606      0.00933646467757
  C   -0.41595264799551     -3.10956774278847      0.01540996034417
  N   -0.78316598573217     -4.21082023391762      0.02045556808410
  C   1.39089300161745     -1.64324024444448      0.00069356826894
  H   3.25396499028804      1.24502708824558     -0.01835904314006
  H   2.56028245401878      3.48911662379456     -0.01863583064920
  H   -1.59100387564248      3.43609219536159      0.00825242208513
  H   -5.01365237262205      0.82791628276258      0.03476865093693
  H   -5.07289996533456     -0.89967509008148      0.03731162982784
  H   -2.73062388673036     -2.26957780370084      0.02565491132542
  H   1.86145570594487     -2.61790838218022      0.00037086310655
