33
Coordinates from ORCA-job ./opt_b97-3c_parallel
  N   -4.53626724379831     -0.21058755561420      0.73884642724360
  C   -3.43464801236145      0.10673984760231      0.53281212947903
  C   -2.15368353770245      0.63064897090411      0.35082654055270
  C   -1.89671919094686      2.05461589144996      0.44078717694839
  N   -2.85809131651152      2.93930108449855      0.73443518330451
  C   -0.54907729010682      2.28394977019952      0.21765452869952
  C   0.10903028412152      1.04142016671416      0.05921245707999
  C   1.45626306086650      0.89744663564672     -0.22445092427505
  C   2.27748185416504      1.94755847156486     -0.82997216816034
  N   1.79234185970120      3.12466872018911     -1.35200094561845
  C   3.59461866953336      1.53257918884791     -0.83293749248649
  C   3.65738891228657      0.26968304082758     -0.20511908829437
  C   2.38184882676771     -0.16759882918347      0.12759626445816
  C   2.12326303026480     -1.30288741809095      0.96589657786003
  N   3.06917382695489     -1.57471570709222      1.91530333718937
  N   1.14703027701946     -2.15797759863445      0.88225023341843
  C   0.18626652444060     -2.28831484112466     -0.03899196786006
  N   0.17240200802454     -3.48615219496643     -0.66434875509325
  C   -0.87066263207696     -1.38038826586752     -0.28995011066254
  C   -1.96165470304874     -1.90900918973988     -1.00954460077225
  N   -2.79533204996077     -2.40995595575402     -1.65089575907985
  C   -0.95172563915929     -0.02769329213861      0.13102723089037
  H   -2.65473568617147      3.91493165637905      0.84109718197457
  H   -3.79131601611995      2.62725546454768      0.93917661075444
  H   -0.05160659504749      3.22929711670504      0.35341666745990
  H   0.81759297441296      3.10630168834790     -1.61089306672639
  H   2.37025589850155      3.53023325361590     -2.07030613005209
  H   4.42682122488251      2.06965768013859     -1.26084392920755
  H   4.56265053918785     -0.28919439945542     -0.02209884640177
  H   3.57093494331916     -0.79874514511231      2.30677595662595
  H   2.86601151561652     -2.33789966629537      2.53853064465404
  H   -0.63153401277159     -3.77330331927747     -1.19739416309140
  H   0.77230856011726     -4.20181787593298     -0.29677612011094
