26
Coordinates from ORCA-job ./opt_b97-3c_parallel
  N   -3.37967069319753     -1.03672936669124     -0.37442879087545
  C   -2.02517844796490     -1.05690805149194     -0.15118319728181
  C   -1.48632141709941     -2.34459185397767     -0.07522651484160
  C   -0.24924177352610     -2.87970750669428      0.26130734947077
  C   1.04041747604146     -2.41909675224232      0.42731619787329
  C   1.67728111108967     -1.19366898756006      0.21539191624974
  C   3.06184324214492     -1.06932703534411      0.25709969712838
  C   3.36791287640923      0.26628099009115     -0.04198912239088
  N   2.29335601939859      1.01721235179064     -0.25033520190462
  C   1.18976302769937      0.18721182035266     -0.09043599756126
  C   -0.06521803296960      0.73785553165629     -0.09912218929698
  C   -0.26249460240758      2.21205378306388     -0.08990376372426
  N   0.70298435638418      3.11796050721226     -0.23799056664509
  N   -1.53024937110278      2.54400034132652      0.12171670537212
  C   -2.21841515927360      1.37347355833660      0.17034327372477
  C   -1.44074865935960      0.22903562968191      0.03424389782655
  H   -3.82643508995551     -1.90363908425252     -0.61254028878760
  H   -3.77640506267610     -0.22448189003136     -0.81083557026121
  H   -2.22861884566409     -3.11652075457046     -0.25116642109557
  H   -0.30802406514748     -3.95741848775362      0.37848604668330
  H   1.74008492414930     -3.20330024431277      0.69487554458109
  H   3.76098083281332     -1.86530142358827      0.45528894482271
  H   4.35626906670207      0.70095444100461     -0.11233874421245
  H   0.48329346954561      4.08107782136336     -0.05326666823189
  H   1.65419096093009      2.75547912942897     -0.29106063114976
  H   -3.28327849756361      1.41113067300203      0.34472004482772
