29
Coordinates from ORCA-job ./opt_b97-3c_parallel
  N   4.89689333366957     -0.13978021450294     -1.39933540832345
  C   3.84817685250461     -0.21684269111024     -0.90751860425997
  C   2.55045524666178     -0.43231629409437     -0.35818861912048
  C   2.20464016285852     -1.79469715867425     -0.28127344641701
  C   1.14693523481851     -2.52685576164855      0.18807912442231
  C   -0.20829117910953     -2.26981515918520      0.49324445143208
  N   -0.88534022226686     -3.35853557946016      0.94619126048222
  C   -0.99620050351215     -1.12230386601739      0.23115569628148
  C   -2.36359435054255     -1.23645102577704      0.03130924904939
  C   -2.93220893619008      0.04345806516223     -0.14973559037489
  C   -4.25602028825653      0.33639255578035     -0.49369589022677
  N   -5.34371455415033      0.63260258896985     -0.78299556652123
  C   -1.92507884639693      1.00795102530897      0.00221918563718
  N   -2.13057938587232      2.34851350373837     -0.10968348761492
  C   -0.67474033280688      0.32961574682764      0.24504739824152
  C   0.49616846573014      1.02379625467214      0.51883371392721
  C   0.55584088150032      2.36870259042274      0.94404489047874
  C   1.88319480475405      2.75596625264081      0.86651803049174
  N   2.69229896006499      1.79954898786314      0.35847066287352
  C   1.93809486867739      0.70561690146291      0.18186569369141
  H   3.03085228915518     -2.42711449691577     -0.58295288882310
  H   1.39375763926184     -3.57950655548459      0.27849009917322
  H   -1.77260618451887     -3.24239011038377      1.39775841215073
  H   -0.39741249918587     -4.21637287814823      1.12589897608322
  H   -2.91876167428548     -2.15308411523966     -0.07354530513051
  H   -1.32691184200494      2.90842629605758     -0.34773465650368
  H   -2.97583225435893      2.61958350525299     -0.58721967931999
  H   -0.24615449779759      2.92917581576009      1.39117060232677
  H   2.30441698159906      3.69556478692238      1.19525263489331
