27
Coordinates from ORCA-job ./opt_b97-3c_parallel
  N   -3.69501103209240      0.72865735229726     -0.90859737596771
  C   -2.45892522008466      0.55632065539894     -0.33163035860428
  C   -1.63588155181804      1.68556559677480     -0.31259975782857
  C   -0.30311039499971      1.89224813702335      0.03125208169868
  C   0.26550275732100      3.16448921255712      0.12862187750716
  C   1.64180095147529      2.98815466550162      0.29193029785544
  N   2.02053127948252      1.70648031895148      0.28582681250841
  C   0.86860666572686      0.96347300529252      0.13799943057612
  C   0.94252860862433     -0.39724894444648     -0.02039255726137
  C   2.22236181470295     -1.11122669193221     -0.24232120063718
  N   3.40412033811317     -0.50845125618745     -0.32818514534145
  N   2.04739225928113     -2.42253594119657     -0.40116904102702
  C   0.71559536319937     -2.62815620739535     -0.22410995592534
  C   -0.02795474275265     -1.46944867235892     -0.01388790281536
  C   -1.38771359654608     -1.47762093728421      0.45279518256480
  N   -1.75621172199500     -2.61799682481722      1.12007832707268
  N   -2.35547649967124     -0.62735083228686      0.28102298993229
  H   -3.80214027877007      1.43806507701896     -1.61053057354782
  H   -4.24240954754923     -0.10500902833186     -1.02911662882318
  H   -2.14896033604111      2.59360666431099     -0.61159954057272
  H   -0.26721048302521      4.10032605296354      0.08263221091286
  H   2.37882188819099      3.76872730744396      0.42719615023536
  H   3.42270424682825      0.48431748859556     -0.09413234498450
  H   4.22779423203760     -1.06443519144027     -0.47553055483701
  H   0.32039617340947     -3.63305627958302     -0.26933284149321
  H   -1.05112096016160     -3.10487845769910      1.64309584146433
  H   -2.67925899208601     -2.60437504897151      1.51949442993875
