26
Coordinates from ORCA-job ./opt_b97-3c_parallel
  N   -4.83536297955841      1.17820955454102      0.22057656848729
  C   -3.80567519996891      0.64177245806931      0.16968731729293
  C   -2.57490218803657     -0.02537274220635      0.11368605877918
  C   -2.39313105972611     -1.44041301930000      0.27002723002917
  C   -1.08272877006634     -1.76419079719637      0.03648991846761
  C   -0.57141116283417     -3.06349154444291      0.14476937140178
  N   -0.15879063864016     -4.14825101070390      0.22616433385092
  C   -0.33928983792635     -0.51832352339856     -0.18701103728578
  C   1.02257113712846     -0.39837337586223     -0.27643445526613
  C   1.90873375506904     -1.53608761395205     -0.56104852040530
  C   3.18929643231519     -1.13172647310922     -0.48681857302643
  C   3.19609716755894      0.26419150810229     -0.07755169134694
  N   4.32340910611109      0.94366836552344      0.17403765996933
  C   1.88570925556751      0.73789145056248      0.00742487768079
  C   1.56879189530172      1.94589987341009      0.71394237541198
  N   0.59365845827628      2.76445497663505      0.56532303816429
  C   -0.33848930187741      2.69379807239277     -0.42790152063122
  N   -1.23387469979638      1.81620240704650     -0.67111867406348
  C   -1.34980347607189      0.55969317351374     -0.17628675538332
  H   -3.17328713854198     -2.13532891682159      0.53229874424186
  H   1.57000182469588     -2.51363003922019     -0.85080303114858
  H   4.06949055449287     -1.71928620604118     -0.69774819029655
  H   5.21040014407475      0.47690543155189      0.20959570484313
  H   4.30751312378378      1.91521249637380      0.42530638031586
  H   2.26462241252756      2.21266156959551      1.51395052027803
  H   -0.38175362926298      3.60050669544641     -1.02892346306561
