28
Coordinates from ORCA-job ./opt_b97-3c_parallel
  N   -4.60377402689938     -2.57518409640357      0.49548113175107
  C   -3.69528065363482     -1.86369009070836      0.35771678639808
  C   -2.60994087665496     -0.98822039060511      0.18585575484101
  C   -2.71537732903382      0.37738013117347     -0.17802330931346
  C   -1.44251155713743      0.92842364673773     -0.17771823036656
  C   -1.20574090173443      2.28944812139627     -0.53779469776770
  N   -1.95754399630461      2.80672904949682     -1.52899112463661
  N   -0.46296022359333      3.16143469071244      0.11437403815623
  C   0.66373526785155      3.13266903431726      0.76646688533976
  C   1.75481316284351      2.26174544465498      0.73826004227680
  C   1.91690889393966      0.95150626313269      0.32678255266887
  N   3.17866905801829      0.45788873277877      0.29520337220633
  C   3.07347566121222     -0.84983431761023      0.04204104827138
  N   4.14061835832386     -1.63161586194711     -0.09820912270048
  C   1.71001231415649     -1.28567664680890     -0.07435214603386
  C   1.37899799913004     -2.60402047125002     -0.38666482899233
  N   1.22246339707950     -3.72760919290984     -0.65113380051838
  C   0.91481601090589     -0.14851924958787      0.09301787958013
  C   -0.48993299395531     -0.13812473224434      0.15129173174839
  C   -1.25937129953602     -1.30197209911222      0.35024772176327
  H   -3.63841852135475      0.90584844843730     -0.35058146395254
  H   -1.93985398950707      3.79679474684196     -1.69964506650696
  H   -2.48982410723494      2.20905161326393     -2.13207827318481
  H   0.82933246562668      4.02861468855170      1.36051911243855
  H   2.67188627907122      2.69653213314027      1.11550120145778
  H   4.04465594778494     -2.61020097939427     -0.30311072467926
  H   5.05881582553794     -1.23169625153864     -0.02553000593920
  H   -0.88191424990094     -2.27239744721513      0.61677486939469
