32
Coordinates from ORCA-job ./opt_b97-3c_parallel
  N   -0.45993855512942      3.86790624068618      1.79399955851969
  C   -0.39351097366105      2.85914521359578      1.21847969432073
  C   -0.43724212954677      1.61571841294558      0.54118407843268
  C   0.80348342121774      1.20605072268686      0.00339634944072
  N   1.78034982836324      2.10291776342308     -0.12580822769108
  C   2.84057431338772      1.39211723004122     -0.60136924162344
  N   3.98936315086764      2.01030691411114     -0.89354048529224
  N   2.66190238805581      0.07307687681182     -0.74632430093747
  C   1.37086470904215     -0.13500124187130     -0.34337085758110
  C   0.89499252051552     -1.38047264432377     -0.01437591762189
  C   1.80576994162531     -2.50224740100717      0.23986473772013
  N   3.11848898272100     -2.47660725522796     -0.02595552987102
  C   1.07621560174216     -3.53288550094945      0.83686265277663
  C   -0.25923780391672     -3.14615970775674      0.87572450846751
  C   -0.43535424097839     -1.85122033977695      0.34673449762637
  C   -1.69314888168359     -1.40225433396715     -0.10631642328000
  N   -2.63111105466847     -2.38078889103304     -0.26943674804419
  C   -2.13923665753388     -0.08194367259016     -0.39677237426289
  C   -3.35505217598330     -0.00247318814006     -1.10835411031474
  N   -4.36613914661238      0.05615343958073     -1.68742960278644
  C   -1.73983663790638      1.15447204413611      0.21527397997683
  N   -2.74177172458897      2.02652449052147      0.44190615321818
  H   4.69748612849029      1.52022992770254     -1.40766207646436
  H   4.00680677578190      3.01367476555563     -0.87790366028222
  H   3.72834264888017     -3.15209751032678      0.39827986536148
  H   3.48765999646450     -1.59485104665382     -0.37508692959976
  H   1.48302082683378     -4.46271162682930      1.20124269365141
  H   -1.05788649872833     -3.75485496989119      1.27168018330880
  H   -2.31792996245850     -3.29948874455972     -0.52260856505356
  H   -3.55430136827834     -2.13374567228147     -0.58161950244716
  H   -2.54981872667354      2.97747399620393      0.70723151387875
  H   -3.69396556433633      1.77681943238722      0.24483730965618
