33
Coordinates from ORCA-job ./opt_b97-3c_parallel
  N   3.36125997633977     -2.63977876340480      0.83415022817511
  C   2.82666576292033     -1.64996556950979      0.52102785949217
  C   2.30235704548298     -0.41780177733230      0.14308241083894
  C   3.12317700584786      0.71070057696167     -0.03810538579927
  N   4.47099802347788      0.70749725419261      0.02416959678492
  C   2.30692965443675      1.83255386201639     -0.31567971359617
  C   0.97214834587698      1.46961131187685     -0.24252369093331
  C   -0.04471851511863      2.40017549803218     -0.54005364443639
  C   -1.34028498385494      2.53715552269557     -0.10177841578877
  N   -1.94103801058815      3.77574935068689     -0.30419429514408
  C   -2.14471775433565      1.66658271988508      0.69218651734930
  C   -2.29652455100263      0.31029282918503      0.69091083176685
  N   -3.37500148651920     -0.19175726026647      1.42638242718024
  C   -1.57161208041915     -0.70173641537057     -0.03538382050818
  C   -2.14690563941007     -1.91304853066759     -0.43472924149728
  N   -3.46524688181900     -2.28374924000892     -0.42139403138603
  C   -1.10710176511064     -2.82637840823673     -0.83023579419713
  C   0.09227233076926     -2.22981838074710     -0.62110778703364
  C   -0.12635476393640     -0.87080652853394     -0.16597633002565
  C   0.93474458440369     -0.00380472208180     -0.00562630229199
  H   4.95795234588858      1.57723497247939      0.13884012222895
  H   4.92930248937448     -0.10820424228450      0.39481559486150
  H   2.66857693302732      2.82618373203652     -0.53112321272116
  H   0.33552387944552      3.27313665365502     -1.06455031588872
  H   -2.93523187556657      3.75601246827115     -0.45725774165250
  H   -1.46410650365212      4.39714384222157     -0.93545281070332
  H   -2.84109363316475      2.20821108926055      1.32575872890528
  H   -3.79772853160280      0.46781683310259      2.05890024120328
  H   -3.20056747160368     -1.08045039286328      1.86819203507227
  H   -3.72620293254095     -3.02265264054810     -1.05056740056911
  H   -4.14430861981346     -1.54753858986792     -0.32748634606098
  H   -1.27648826401033     -3.81042405823441     -1.24160473093479
  H   1.05334662827795     -2.64104585720254     -0.87225081878951
