30
Coordinates from ORCA-job ./opt_b97-3c_parallel
  N   -4.87003742948647      1.19350831702388     -0.92246441684123
  C   -3.76569639052939      1.07549242335095     -0.58353066593149
  C   -2.40004051559246      1.03607303718921     -0.17970096912562
  C   -1.87738821488348      2.30535233454982      0.12474993022363
  C   -0.67600262228742      2.84318167161033      0.49885379930799
  C   0.67262833361984      2.41903952915991      0.49757852811585
  N   1.54487595263928      3.42791681035733      0.79193616416550
  C   1.26067111829789      1.17519295158983      0.17486432808566
  C   2.63018055921498      1.09398304147687     -0.07290641937108
  C   3.05064494236702     -0.24318651169885     -0.10716260049302
  C   4.33609970654539     -0.72952927114145     -0.36309157907449
  N   5.38641454618713     -1.18861167275723     -0.56641640075873
  C   1.93299341461509     -1.06531557805838      0.15173658882549
  N   1.96582923934472     -2.39749783593994      0.23602604682225
  C   0.75905253855785     -0.21899649966072      0.26375210889416
  C   -0.50173435058895     -0.78959962446324      0.30359832640535
  N   -0.64623682976966     -2.13833171222927      0.44123705570432
  C   -1.94746660637439     -2.37291956166201      0.20307148133880
  N   -2.47678038886778     -3.59662907197370      0.23616269617492
  N   -2.71318618016913     -1.29455951029977     -0.08209648316188
  C   -1.87933003146552     -0.25356460424274      0.00163449542359
  H   -2.65689527243110      3.05793263997125      0.10037813532271
  H   -0.77590283369711      3.88636653432860      0.77746054906175
  H   2.45581637017638      3.21153564158966      1.14881955465510
  H   1.18612836413962      4.33580066006654      1.02141318136418
  H   3.29092953885472      1.92355370496901     -0.25947666941707
  H   1.06703381169795     -2.86249571727229      0.32839216767351
  H   2.79405773718582     -2.89262960185887     -0.04612701033962
  H   -1.93263593801734     -4.37409146508879      0.55950473293496
  H   -3.46938448167750     -3.69831570879488      0.12981745680618
