31
Coordinates from ORCA-job ./opt_b97-3c_parallel
  N   -5.41783019062792     -0.27474357704413      0.57620337565913
  C   -4.29328910155094     -0.08458251881014      0.34620890775198
  C   -2.92611264433181      0.05155044153991      0.07644878110088
  C   -2.21382920270834      1.19775669495494     -0.18666182385216
  C   -0.82198571133420      0.87276202187013     -0.26806220242855
  C   0.13275124268595      1.86772144448984     -0.41657349834257
  C   -0.10947932679212      3.18398674101544     -0.85505505371390
  C   1.00534650253195      3.91999336205648     -0.50523051966951
  N   1.93741371902890      3.20074986581993      0.18233840530004
  C   1.49949740600907      1.93534471881879      0.21179205076245
  C   2.22079270101685      0.99965480358197      0.95209113890010
  C   2.35543671356859     -0.37209964357906      0.85603058838377
  N   3.29589313408713     -0.94632920303429      1.66116254928997
  C   1.74046431571933     -1.28786996087405     -0.09173637288289
  C   2.61034759751085     -2.28592483522482     -0.57909010388019
  N   3.29755731864911     -3.13684397299419     -0.98228693425911
  C   0.40201602335286     -1.41782445497698     -0.45757823317232
  N   0.04802595147794     -2.52627012289950     -1.17157380831616
  C   -0.70361458531149     -0.56718683219479     -0.09772558430157
  C   -1.99927562978818     -1.06115599624075      0.09951428717872
  N   -2.42240934518087     -2.34482490077160      0.24263745017206
  H   -2.61363362889842      2.19595018421405     -0.19544303753151
  H   -0.97471860773021      3.53025131806840     -1.39428644319432
  H   1.19864867474505      4.95762599859187     -0.73810779340555
  H   2.93275626290404      1.47892047001271      1.61616019968053
  H   3.57180311490312     -1.89896558516803      1.50001929447683
  H   3.99242702091083     -0.36152949755369      2.08844974135250
  H   0.76686282922007     -3.13942844702642     -1.51914175157788
  H   -0.79162387500258     -2.48105019502624     -1.72028851489795
  H   -1.74890196589075     -3.04061189426655      0.51058386741881
  H   -3.35187803187307     -2.48438544095052      0.60255041489895
