25
Coordinates from ORCA-job ./opt_b97-3c_parallel
  N   4.51379565883322      0.45942705169016      0.65187185503716
  C   3.49287180691038     -0.06020409023376      0.44758869191432
  C   2.26576819364286     -0.68316263457584      0.20521337809470
  C   2.04540618416182     -2.04041477690331     -0.07656263620207
  C   0.70890138219129     -2.27579943340498     -0.39532210475628
  C   -0.01523152707520     -1.08496541678097     -0.28241749789787
  C   -1.40133086470601     -0.97285962650803     -0.24554593205092
  C   -2.27375237010864     -2.06140324299863     -0.50038591604993
  C   -3.54142626911101     -1.75728019010694     -0.03493444082204
  C   -3.51346506454237     -0.48226661852424      0.55647196663422
  C   -2.23876209122777      0.07004565221041      0.39626529530396
  C   -1.99290913281206      1.38774766777711      0.80498574303445
  N   -1.12176846133579      2.28012871753281      0.42283042966592
  C   -0.04416030755542      2.11780900704210     -0.34575064974357
  N   0.13958390737740      3.03776380461145     -1.31119898793187
  N   0.97455320401454      1.28153710232497     -0.15259865161616
  C   1.03195834803879     -0.00368456259843      0.00136570745802
  H   2.81615321455485     -2.79536484728191     -0.04039741042917
  H   0.28369045682266     -3.25129715033061     -0.55603930951407
  H   -1.97593788091846     -2.99627785478845     -0.94559955406181
  H   -4.40750323590496     -2.39769953460166     -0.10144956163702
  H   -4.34981653043259      0.02633206181078      1.01053045972091
  H   -2.73763538249300      1.78600530274061      1.49058310971625
  H   1.05633759990392      3.12843266055888     -1.71315655024391
  H   -0.47152057362842      3.83506013503778     -1.32833313682329
