28
Coordinates from ORCA-job ./opt_b97-3c_parallel
  N   -5.44501227152685     -1.37298797310084     -0.86138951505735
  C   -4.37297868618766     -0.99563153384534     -0.61906872243944
  C   -3.08425124210180     -0.52262791427407     -0.31773300498273
  C   -2.76056852612567      0.83770381953184     -0.00345507800351
  C   -1.39945016803181      0.93364073288508      0.18522272306087
  C   -0.76299272577384      2.12346919320281      0.69244575900483
  N   -1.47931839128853      2.84155035162689      1.59152815836973
  N   0.34690264326765      2.67023169279781      0.28692450217909
  C   1.42342790323128      2.29072875330886     -0.35965470553714
  C   2.13882466425744      1.09618123780873     -0.36822699105765
  C   3.44706302203601      1.21729843631153     -0.90677298344639
  N   4.52327744713260      1.29915467745271     -1.33788099155198
  C   1.79868423029528     -0.20790345202180      0.10060808693940
  C   2.71575974506988     -1.21245504035157      0.26517316628607
  C   1.96619048703494     -2.41149440671653      0.46588440301151
  N   2.46729255652197     -3.62510334285408      0.69202468720182
  N   0.63875745234015     -2.21698278327078      0.41589669619769
  C   0.45424270634042     -0.89544242208451      0.21137502975160
  C   -0.83396563743288     -0.40487648535817      0.02127949187924
  C   -1.92501507394243     -1.27430386716639     -0.25772204906016
  H   -3.47115220915935      1.64568960991804      0.05662466541542
  H   -2.20765346734173      2.39655700490691      2.11691146338943
  H   -1.07761846238688      3.69090520363918      1.94905381801946
  H   1.91626809189407      3.10673224386513     -0.88081884131704
  H   3.78712422515665     -1.12338297011695      0.20054932311923
  H   1.83955062297752     -4.40088351384501      0.81053961300468
  H   3.45506987999278     -3.78828573577688      0.74232171061214
  H   -1.83166117605004     -2.33076078247330     -0.43145837348888
