31
Coordinates from ORCA-job ./opt_b97-3c_parallel
  N   5.97549193766138      0.65607382517068      0.48650575430858
  C   4.87570617924403      0.37410433575427      0.22935721300707
  C   3.53385055389775      0.09990387842398     -0.04849586356163
  C   2.97917125350844     -1.08878915562596     -0.62090948796129
  C   1.60206559331655     -1.05016021141534     -0.61145408785196
  C   0.83835005728266     -2.07777425645459     -1.23278139607430
  C   -0.43406229759082     -2.51510671867685     -1.11418087277489
  C   -1.47691548493291     -2.15884165677681     -0.18665329689697
  N   -2.23082186201754     -3.21214832566345      0.20633582109985
  C   -1.81861580243561     -0.88418818194231      0.26522708287759
  C   -2.84160933774267     -0.84335817662658      1.23761822460288
  N   -3.65629666869055     -0.89574107473040      2.06806484020523
  C   -1.35320477203553      0.39233240323947     -0.21786174567588
  C   -2.19236206158665      1.48314767546048     -0.36063711293013
  C   -3.59311549852549      1.46486662929778     -0.40489086783551
  N   -4.75264982604381      1.48584667803460     -0.48572226635899
  C   -1.40084258120361      2.69283455069626     -0.49664008284336
  C   -0.09251732085002      2.38137507057551     -0.35941597032550
  C   0.02920755201019      0.93795227973976     -0.22155080958005
  C   1.22332394438377      0.28356703477152     -0.12781772665332
  C   2.48120163535031      0.94841578090081      0.26386280134856
  N   2.57761805733094      2.14320235275346      0.87537569427354
  H   3.57233360261030     -1.89847375969731     -1.01612778829105
  H   1.43824614049741     -2.68352380481590     -1.90467385189981
  H   -0.67260921761885     -3.39566934889737     -1.69927033688244
  H   -2.98293546551815     -3.08634620927649      0.86320706249224
  H   -1.89306071493929     -4.14610342483131      0.06948073763419
  H   -1.81567362739634      3.65979268629243     -0.73144842738570
  H   0.73392124350335      3.04254938253106     -0.55545105902585
  H   3.46684679930710      2.40382325378780      1.26851069780568
  H   1.76523771672429      2.53778696250092      1.31488526775334
