30
Coordinates from ORCA-job ./opt_b97-3c_parallel
  N   4.80475660043504     -0.54774321497107      0.79647074048233
  C   3.69817607147067     -0.81233913462279      0.55559232681474
  C   2.37466085297176     -1.19581705572614      0.31089469383834
  C   1.91430304571283     -2.56048649996018      0.22688429624055
  N   0.63298898796971     -2.65258435991272     -0.00808039443794
  C   0.14732317457755     -1.34267712634947     -0.04301985234778
  C   -1.18590418974130     -1.13570366769453     -0.29462540715679
  C   -2.01306392443199     -2.18381806604301     -0.88809846502944
  C   -3.25932454814961     -1.70179656170608     -1.07624611838895
  C   -3.31466547160839     -0.36346846441342     -0.51031320812486
  N   -4.44235946803856      0.36775969420848     -0.46866763631317
  C   -2.04028905972032     -0.00218386205403     -0.05762614103236
  C   -1.76901913723315      1.08539035850698      0.85496587661302
  N   -2.78972448382599      1.36975874204284      1.75101785568316
  N   -0.73224595486513      1.84329939904540      0.92774623743969
  C   0.30236939206632      1.96146383503769      0.05845720242289
  N   0.39672653139996      3.19380317495745     -0.49740738290185
  C   1.29870646906431      1.00877541705882     -0.17874629493813
  C   2.44171833349217      1.49272546969802     -0.84994354216042
  N   3.32333821786990      1.97056147549290     -1.44159564019038
  C   1.25624913194348     -0.38814059464421      0.13400312816931
  H   2.53632683730854     -3.43513172948056      0.35488897899382
  H   -1.62175825064320     -3.14414494506787     -1.17330492012595
  H   -4.09030198826633     -2.20252171223148     -1.54923911881209
  H   -5.32245693828702     -0.04638135585247     -0.71319126610936
  H   -4.45886187362708      1.22120671712282      0.06407236480579
  H   -3.24674802610313      0.56350750691924      2.14729563228599
  H   -2.52568048569141      2.05564533456545      2.44187308448058
  H   1.24814829397799      3.45929720111717     -0.96519128274574
  H   -0.13218359142881      3.92799862245835     -0.06265896395302
