28
Coordinates from ORCA-job ./opt_b97-3c_parallel
  N   -3.14098820171732     -2.78603953386489      0.00289664097241
  C   -2.61780290234342     -1.74369165682833     -0.04262114681516
  C   -2.10324497687181     -0.45235426417961     -0.09496914980391
  C   -2.93080356636303      0.67836990817661      0.12641001680138
  N   -4.25458464971199      0.61854503978653      0.29179220758868
  C   -2.14559873712008      1.85782470983664      0.14023788617338
  C   -0.82789322235386      1.51198262699148     -0.05578688458093
  N   0.11226018013260      2.40647559142159     -0.36776567079563
  C   1.39784172015942      2.39177402129858     -0.17185105168431
  N   2.14824923086221      3.19225076984033     -0.97089848912253
  N   2.13602482560387      1.79863111451136      0.82203752731448
  C   2.32682409769963      0.52287750838321      0.89876462890229
  C   1.75240273580059     -0.54970109599541      0.17668408651326
  C   2.36792866838263     -1.80373013920763      0.07206199938452
  N   3.62896984283252     -2.15762955869609      0.42092114369590
  N   1.52613077689365     -2.77487402357519     -0.42727134151862
  C   0.35591224192389     -2.19095538155889     -0.57406986807028
  C   0.37426637152367     -0.78781085007793     -0.24037953961784
  C   -0.75578935337326     -0.00193947154054     -0.15498255501554
  H   -4.77682291390392      1.42599161551136      0.57555980254595
  H   -4.72142304178192     -0.27240908697326      0.31226447358366
  H   -2.51958059272960      2.86705357929119      0.18535763646161
  H   3.05683313839965      3.45847165208805     -0.63707489852657
  H   1.65541327932749      3.84738892071547     -1.55194886092414
  H   3.05970453672962      0.23247907234423      1.65475549846167
  H   3.90537577318800     -3.08487738162805      0.14730513797197
  H   4.35513363161332     -1.46624512946072      0.39775570845603
  H   -0.49026648670228     -2.73864993161009     -0.95613570875116
