32
Coordinates from ORCA-job ./opt_b97-3c_parallel
  N   -2.98800450731711      3.96159433825177      1.74212641036075
  C   -2.43074859665205      3.09315269242303      1.20863479559235
  C   -1.75149007437474      2.02612904258351      0.55756834941605
  C   -0.54935385122876      2.40083207161293     -0.09749277532187
  C   0.55801187279225      1.70163367186140     -0.49770736327422
  C   1.46318478552912      2.44734729542715     -1.30493596662814
  N   2.16036402392981      3.04792595648887     -2.01347966287775
  C   1.02413571584646      0.38724243343606     -0.10789039603432
  C   2.36609401122274      0.14136450676367      0.11549663746938
  C   3.44363313956373      1.03077411934330      0.20425337706549
  N   4.41681750463667      1.64979538334699      0.35149683410981
  C   2.56337309680598     -1.27736139320758      0.35199308642191
  N   3.73956528009340     -1.81605861731985      0.66433406082251
  C   1.33378928192605     -1.91257470405864      0.22666478264036
  C   1.19378888212945     -3.27293847033867      0.50357441107201
  N   1.17640292557031     -4.41270242528016      0.74414081090632
  C   0.32516004989545     -0.91342939119282     -0.04731410593881
  C   -0.99852328921612     -1.20045665215375     -0.29139788243947
  C   -1.43387074395066     -2.52860480293872     -0.64354674542136
  C   -2.78809711159222     -2.55268691147252     -0.76808993612296
  C   -3.29672307738830     -1.25465739708492     -0.44353036248051
  N   -4.60973075314145     -0.95463620329881     -0.40546345393067
  C   -2.22090030165447     -0.38601805725659     -0.15553530216255
  C   -2.47032014266832      0.84990214557176      0.43829547225151
  H   -0.49917195319083      3.46028802572380     -0.32003454259768
  H   4.55636205395802     -1.24105540520676      0.77674559659517
  H   3.82183573757938     -2.80201768826579      0.84216053386980
  H   -0.77826165461519     -3.35280455282597     -0.85714036334170
  H   -3.38677271445158     -3.39363813948468     -1.08292268151325
  H   -5.28573463117727     -1.64724373390153     -0.66821889183826
  H   -4.92174701988055     -0.00181209446682     -0.44232140122722
  H   -3.47417341087811      0.94139965981986      0.84321105855759
