28
Coordinates from ORCA-job ./opt_b97-3c_parallel
  N   -3.81251786057015      1.97085650670930     -0.23564802280462
  C   -3.00485127067044      1.13101157956601     -0.19247908869586
  C   -2.13409455924183      0.04626806586560     -0.12560732656621
  C   -2.57456140060291     -1.27258801326084      0.22613697901498
  N   -3.83726645591373     -1.61181384050662      0.46915033839812
  N   -1.58139455853627     -2.16994313078536      0.31247465274629
  C   -0.44767042233268     -1.49736006556392      0.03905150186031
  N   0.65033229372671     -2.15176265174106     -0.21522793035933
  C   1.91523801712090     -1.76574858538541     -0.25577986578803
  N   2.68473340198295     -2.38914558479908     -1.17134958830791
  N   2.55546466605525     -0.98990351337530      0.62392076713639
  C   2.36228977022136      0.28452223644945      0.83393020264909
  N   3.13350176436937      0.84887008253583      1.80023148975291
  C   1.54058205840120      1.18667144081859      0.06986813155734
  C   1.90712493533566      2.49978436347650     -0.18599252578083
  C   0.83736218424364      3.16213886286750     -0.84117700793760
  C   -0.22455828913374      2.29378980680938     -0.93221064961024
  C   0.15903659972325      1.02704394334832     -0.39329104173442
  C   -0.73398218272680     -0.01578872728508     -0.17635596853245
  H   -4.57775039465222     -0.93674534499785      0.40163935981841
  H   -4.04849889008658     -2.55185071016635      0.75140159747189
  H   2.30691812888647     -3.18862286883341     -1.64812328002675
  H   3.68165695760157     -2.29976779451504     -1.09884439496261
  H   3.68857671336538      0.23167479046465      2.36686884222517
  H   2.83015398103375      1.71156928322409      2.21110111028962
  H   2.87232356631127      2.92805430851737      0.03681701640153
  H   0.86282782768555      4.17527882895734     -1.21157837260687
  H   -1.18420586579635      2.50662858080499     -1.37083080510835
