30
Coordinates from ORCA-job ./opt_b97-3c_parallel
  N   -4.06031463788513      1.33071097803014     -1.34281456755432
  C   -3.34456488194862      0.55034675567316     -0.85671147164613
  C   -2.52899707783014     -0.42892223984626     -0.28349431178764
  C   -3.03673173191186     -1.66092785940707      0.24104507195445
  C   -2.01688221254249     -2.40232123649628      0.76694135250021
  C   -0.78179956651330     -1.73297065689859      0.48838776764961
  C   0.40314068512877     -2.39142544505731      0.63457779578911
  C   1.67366190050871     -2.25518475504449      0.00071384192535
  N   2.37268303378521     -3.44654704192018     -0.00963711666219
  C   2.30781030675860     -1.18182148226131     -0.59529801266718
  C   2.16913303149098      0.21587459627667     -0.48482994410262
  N   3.22346798631844      0.90502943145657     -0.99230850773647
  C   1.10423489771775      0.99061833857618      0.03654607179779
  C   1.21472684849533      2.37308452231767      0.30395488041705
  N   2.37300871240457      3.13909620035460      0.43303769483092
  N   0.01469579734923      2.98757105464529      0.40151856731281
  C   -0.90613690423421      2.04830308152586      0.17918749345569
  C   -0.34542830864074      0.75982025918089     -0.01817069500679
  C   -1.13748484282099     -0.39185328503499     -0.07253554105584
  H   -4.07604076885230     -1.94748720548730      0.19305885533315
  H   -2.08705050823733     -3.40758973010626      1.15015609762089
  H   0.30297910974451     -3.33696464700857      1.15856776949123
  H   1.83976062264960     -4.29858456123822     -0.00792451452390
  H   3.20672274354255     -3.49217965648059     -0.56815151858582
  H   3.19805842670949     -1.46812138603573     -1.14764617969587
  H   4.08511759759478      0.43779162370565     -1.20191845499719
  H   3.22806597225174      1.91371865960920     -0.95876734314828
  H   3.02589402543641      2.77728758122223      1.11412230958501
  H   2.12299083230360      4.09014089667456      0.66499675921286
  H   -1.95395556207443      2.27981894157417      0.26241435859401
