30
Coordinates from ORCA-job ./opt_b97-3c_parallel
  N   -4.43988679057995      1.46483345286090     -0.13108252645039
  C   -3.47628752646259      0.80865706804755     -0.11280345424047
  C   -2.38138107554160     -0.05055605928183     -0.10108397728417
  C   -2.47726870806033     -1.47815683505234     -0.18109533767059
  N   -3.62756568841949     -2.12422811480205     -0.40200661025326
  C   -1.20582290179997     -2.04403309601513     -0.02614807412923
  C   -0.26253896545751     -1.02380096364193      0.10218723406223
  C   1.10725415603104     -1.21349423865027      0.27181943733476
  C   1.64155624551504     -2.46422284605846      0.70210866595892
  C   3.01559117460310     -2.40030113963569      0.67889785138984
  C   3.39625714933688     -1.13527129516452      0.17133527249550
  C   2.25783592037792     -0.36753884532966     -0.06480055081849
  C   2.34384259852348      0.91139213967169     -0.71534112352959
  N   3.48331494017821      1.08244213822744     -1.47048866739385
  C   1.54849271649870      2.02546135122072     -0.55592046876068
  C   0.40988617036850      2.23168127677188      0.26356102647716
  N   0.31129900811722      3.47278687625033      0.83261856227317
  N   -0.66658938689664      1.49726851715480      0.41420583077522
  C   -1.03210199678966      0.28014579964411      0.09437314515072
  H   -3.67744847661402     -3.12440305782203     -0.35197725215095
  H   -4.49194146099826     -1.61443210182141     -0.45749037136351
  H   -0.98464968754886     -3.09450721633424     -0.10984370616907
  H   1.04629236618818     -3.28554488550619      1.06601778921038
  H   3.69538478953345     -3.16673847886631      1.01910256752934
  H   4.41184742401050     -0.79241783722917      0.05163412663509
  H   3.85967142723825      0.25667775224458     -1.90032002765936
  H   3.53976332103037      1.90931576589701     -2.03844512425339
  H   1.90939289820546      2.93301496291764     -1.02765229140448
  H   1.15194052564765      3.94145858461690      1.11688658808006
  H   -0.51467545223416      3.64153753998361      1.38183230885785
