34
Coordinates from ORCA-job ./opt_b97-3c_parallel
  N   2.17474369571308      4.12804658811436     -1.68239937048378
  C   1.75862203794028      3.17203516296627     -1.16290607911578
  C   1.24608906975458      2.02721026062377     -0.50852299794224
  C   2.18040719340427      1.01236738845324     -0.31094212008133
  C   2.15189927719021     -0.29275576894108      0.14275970851100
  C   3.38522355227268     -0.98969847293445      0.37762456557722
  N   4.58687826817221     -0.39307177421829      0.49854541131028
  C   3.17568998757505     -2.37449655275626      0.40557785582052
  C   1.82807006529634     -2.60943708370671      0.17417529917683
  N   1.21267734243400     -3.79040202038469      0.12365017686097
  C   1.12456846840157     -1.31878106793826      0.06054850900762
  C   -0.22429367774735     -1.23439067492333     -0.15071586175382
  N   -0.96012790861609     -2.37068185161769     -0.47138553792179
  C   -2.23012513112352     -2.02295564859566     -0.46247258774125
  N   -3.23980721952340     -2.85919550662163     -0.73632686481697
  C   -2.40864528468035     -0.62808510895804     -0.11708400305552
  C   -3.66252759487259     -0.01296630985723     -0.13044261251476
  N   -4.75251538858560      0.38649017035329     -0.21304397803602
  C   -1.14114477481935     -0.09296230706797      0.07164120384944
  C   -0.93669529105598      1.22889693398039      0.58544219372677
  C   -1.94271368305951      1.69867666694740      1.45757813336847
  N   -2.71669664944227      2.13597745982939      2.21076081221599
  C   -0.02414105627766      2.21261964910762      0.15186021840138
  N   -0.35068108639312      3.49519556129504      0.39729984325951
  H   3.17582402638651      1.33676675558040     -0.60357016426739
  H   4.63951824961996      0.57523586262928      0.75617983777725
  H   5.39227485472062     -0.94754243717184      0.72262191251779
  H   3.92668039539111     -3.12579837145131      0.59273006942681
  H   0.23364500118792     -3.77435759158819     -0.15905766155225
  H   1.74274979570110     -4.64243270079495      0.13283930499361
  H   -4.16935225988756     -2.49595122250608     -0.85113025920367
  H   -3.03620507478260     -3.76366784321263     -1.12096372676884
  H   0.27459114932730      4.24273928022237      0.15374967058079
  H   -1.24283666535537      3.73341506613311      0.79520760141396
