29
Coordinates from ORCA-job ./opt_b97-3c_parallel
  N   -4.97428245979653     -1.45584954339453     -0.65116530672453
  C   -3.88001793736866     -1.18237123701257     -0.36680794639215
  C   -2.55062426121326     -0.79892619830175     -0.04787332663306
  C   -1.80802066977083     -1.84276340120046      0.51186488408826
  C   -0.47669953713352     -2.13664558006688      0.71769040358051
  C   0.72472121929428     -1.51629477090215      0.39322951165570
  N   1.83305771142349     -2.28532798667757      0.40992641261448
  C   2.85684595024246     -1.49368577864193      0.04444143019298
  N   4.08935577265124     -1.97455584393929     -0.10169062598445
  C   2.45752175055515     -0.14032714333462     -0.16625850134164
  C   3.35164281546461      0.84382353722801     -0.58551921154327
  N   4.18097472752640      1.58192923804847     -0.93942956357473
  C   1.07180568481051     -0.09896627180842      0.07483919861939
  C   0.31139994344305      1.06267036167049      0.23047964152160
  C   0.93311241441817      2.30889665481519      0.49864487890531
  C   -0.03135740636570      3.28951908685861      0.61674857118959
  C   -1.28598658702851      2.71639296621841      0.35588196837073
  C   -1.13882712881537      1.34160681897063      0.13215597607254
  C   -2.25445306032195      0.57582976914326     -0.30406372147985
  N   -3.23406164573059      1.27907392708577     -0.91376039173476
  H   -2.44069486352858     -2.69079588670885      0.74603368419350
  H   -0.30709135365716     -3.14368961694640      1.07654673055375
  H   4.25468277561399     -2.95529352079168      0.03561591543040
  H   4.84289287004462     -1.38646041596097     -0.40970140750442
  H   1.98632305112707      2.44406876131993      0.66831043219174
  H   0.14220883824785      4.31675998069149      0.89688513791036
  H   -2.22647906447184      3.24086400332030      0.41384454254602
  H   -3.04637398718216      2.20413871998616     -1.24787428029575
  H   -4.11783985367798      0.86139637543155     -1.14835577072865
