26
Coordinates from ORCA-job ./opt_b97-3c_parallel
  N   4.28786807960570     -1.41919352268989     -0.08744144983976
  C   3.07890993160141     -0.82370041170629     -0.03594477650932
  C   2.90923598965254      0.59932958838987      0.12413797926487
  C   1.57812891179533      0.90485043865917      0.13365370550113
  N   1.22125108160852      2.19421500814542      0.31006154445242
  C   0.13546458990133      2.86667608132641      0.07777520389138
  C   -1.16698384127148      2.59779304533750     -0.41543617938497
  C   -1.93235914986546      1.46525775595737     -0.47506444564594
  C   -1.72069533781906      0.11664177500914     -0.16481635457299
  C   -2.77426319935821     -0.80711982288790     -0.12644149078201
  N   -4.11601374991512     -0.58366119894430     -0.26746142526377
  N   -2.34302066504836     -2.10273802213544      0.04002665057328
  C   -1.02769790740662     -2.04567611491446      0.08648427909852
  C   -0.51388739016208     -0.70762326854411     -0.00822058916869
  C   0.83629823921132     -0.43470569076912      0.00220961859905
  C   1.83927049134279     -1.43062339434620     -0.08189874502471
  H   5.10738607252675     -0.86379838307821     -0.25039042047354
  H   4.35589802658316     -2.39028811833780     -0.33283688149857
  H   3.69886516668375      1.32353851724358      0.24297744822416
  H   0.26785873734142      3.92889661437395      0.29225984559285
  H   -1.69564990890353      3.50792224581260     -0.67526603635624
  H   -2.94663374483958      1.66399505532541     -0.81206713724368
  H   -4.47633006045948      0.28197520960870      0.09409816105117
  H   -4.67901839090996     -1.38224590698222     -0.02571960786430
  H   -0.44725926090279     -2.94116333530532      0.24477672136756
  H   1.67013917730770     -2.48527148114786     -0.21783855308802
