34
Coordinates from ORCA-job ./opt_b97-3c_parallel
  N   4.41146435169496     -0.47376295236175      2.31492405997436
  C   3.48549078026443     -0.43740230043477      1.61037939777086
  C   2.38676352706870     -0.37870336273072      0.72189870534243
  C   1.62256831242601     -1.50834508506537      0.59722989946271
  C   0.44638594558164     -1.76235195559698     -0.12697843248604
  C   0.04288566440835     -3.08854042965760     -0.46237827720979
  N   0.79026435232551     -4.19334370120266     -0.37376615873686
  N   -1.24203208395367     -3.18683646205992     -0.88294371903183
  C   -1.74177218388040     -1.95935834259788     -0.77119243930752
  N   -2.95444153323311     -1.67988870239920     -1.23378717975161
  C   -0.74525957478115     -0.97763694424590     -0.27292007496739
  C   -0.99685781804312      0.33299835007255      0.05908691571097
  C   -2.27057892325569      0.90315748359685      0.44806120189114
  C   -3.40074134911818      0.26451277402328      0.94988699177563
  N   -4.39089444032209     -0.21622662068616      1.34021594113730
  C   -2.09678324138888      2.29061016456888      0.56586820184186
  N   -3.03120724154096      3.17859189648046      0.94936393666406
  C   -0.74874025463089      2.61174727410939      0.22102419372297
  C   -0.05400295934614      1.45712384269807     -0.03536249750412
  C   1.28602196025179      1.49037923714688     -0.60353077897474
  C   1.52903787358128      2.53445652198461     -1.52086792582834
  N   1.78576427515907      3.39135990637793     -2.26735077688494
  C   2.38906902706683      0.76703700668736     -0.20294702708179
  N   3.61657102159069      1.07536851312958     -0.68045559427014
  H   2.00130521374750     -2.35700387997744      1.16331334172030
  H   0.38767161084367     -5.06549783430307     -0.66685394954298
  H   1.78722966563672     -4.14025278278763     -0.28544191019603
  H   -3.39813107698147     -0.80037611607084     -1.04294270813574
  H   -3.54105231663014     -2.44928283443326     -1.50746091555529
  H   -2.75318818347001      4.10053527433525      1.23136697503994
  H   -3.90446606919958      2.84283120721865      1.31905068535936
  H   -0.35349713687955      3.61162626333736      0.13609313678389
  H   3.75846951215584      1.92930233699907     -1.19347645350151
  H   4.42918251525592      0.64019088694397     -0.28336285883111
