27
Coordinates from ORCA-job ./opt_b97-3c_parallel
  N   5.55331116749475      0.38915650358360     -0.18330233063869
  C   4.39519427143392      0.34554870073298     -0.09503855803997
  C   2.98343584674561      0.30484761197185      0.00963368199198
  C   2.38868815084809      1.31114763738062      0.78876491120368
  N   1.18910744299831      1.78628462032730      0.70364548015131
  C   -0.00706332899442      1.59658078793763      0.25401225001701
  N   -0.78380629101099      2.64424874883709     -0.07953471670978
  C   -2.02367716554843      2.15323972336248     -0.19634358533059
  N   -3.04401109700717      2.93007631986338     -0.53133391964656
  C   -2.12023429091013      0.73475241672948      0.04877111361170
  C   -3.30975202977368      0.05288098215060     -0.17869888155131
  N   -4.35038606388088     -0.44320105715055     -0.36262015351293
  C   -0.80007588161712      0.28973477265707      0.22960807715091
  C   -0.24422079640467     -0.97658807338070      0.22461990577549
  C   -0.95495709239903     -2.22249124063177      0.31618303356079
  N   -2.14448745753568     -2.48105652457239      0.87270287085517
  N   -0.22519473300281     -3.27361682581399     -0.14750868671629
  C   0.93290554166482     -2.77143361975848     -0.55018183107765
  C   1.08429711319115     -1.38391465068151     -0.30154434860233
  C   2.33663352991985     -0.83846881224538     -0.49046386173884
  H   3.02891474833657      1.81349881019777      1.51036599778453
  H   -2.87594784296931      3.89854291901774     -0.74023060880106
  H   -3.97760122232607      2.56572327155545     -0.60484931185435
  H   -2.81749188992703     -1.75911590878639      1.05235339129766
  H   -2.51530084274180     -3.40293625839782      0.71559118173599
  H   1.69879899292975     -3.41058448855475     -0.96704840085684
  H   3.01668675448659     -1.52138020793154     -0.98715191355892
