28
Coordinates from ORCA-job ./opt_b97-3c_parallel
  N   -4.67492800766633      1.14929831036906     -0.00122781225889
  C   -3.58500689251790      0.74825288836259      0.02099556583972
  C   -2.30671944910526      0.13290545179762      0.00466911831507
  C   -2.35999463241483     -1.24111092050166     -0.40773141777651
  N   -1.59706186356701     -2.22953972974389     -0.12833178933858
  C   -0.42751684397424     -2.37537706912086      0.52120954686436
  N   -0.42679085437420     -3.35968713634592      1.44451734437940
  C   0.75961843825281     -1.75707165830434      0.13075424916671
  C   1.98569859748595     -2.41687344025264      0.01264730117067
  C   2.89028519058995     -1.61475183832908     -0.68353467746724
  C   2.27925268493586     -0.39079155006681     -0.97926516460877
  N   2.79848283953062      0.56740524592605     -1.78972016523693
  C   0.95541238637557     -0.38958445062100     -0.40433378904194
  C   0.25392064880716      0.74270455781595     -0.01329625955910
  C   0.78206798635320      2.04954306444341      0.20504360178467
  C   2.11813285774260      2.44914965315770      0.29071109094340
  N   3.22472977936560      2.80604495325523      0.35868837038188
  C   -0.28567554037345      2.83953388600723      0.68058366212910
  N   -1.44517343181799      2.19774399551367      0.72875467584453
  C   -1.21065459685354      0.92467590197175      0.31674770549944
  H   -3.23750810813779     -1.49933570098778     -0.99501687314126
  H   -1.18089308986267     -4.02349229513567      1.46107791449083
  H   0.40379947565365     -3.56033477432111      1.96856278623500
  H   2.16808068889577     -3.44109063443722      0.29981265191741
  H   3.87991559108864     -1.90751504266403     -0.99701413608460
  H   3.79702982528978      0.69168173584836     -1.77258399598624
  H   2.30822805475810      1.44172561171977     -1.84686520899964
  H   -0.19672538886045      3.85816891984366      1.03096055873735
