32
Coordinates from ORCA-job ./opt_b97-3c_parallel
  N   5.71385798376289      1.41004121647044     -0.76111400476636
  C   4.68805864806476      0.93239621094641     -0.48663818424823
  C   3.42534530411195      0.41892127628175     -0.17716717619654
  C   3.11014960716924     -0.89324533127940      0.27696624235477
  C   1.74306310250115     -1.03413706791855      0.35804736029433
  C   1.11016138064789     -2.21676638251324      0.86538164784843
  N   1.74330378235517     -2.86385323531662      1.87285769362159
  N   0.08370609743282     -2.83677155378032      0.34705538512675
  C   -0.91291672656295     -2.51528699444319     -0.43461744074493
  C   -1.68555901183431     -1.35384359245224     -0.52352923527363
  C   -2.86328859733210     -1.51737433549081     -1.29799372060149
  N   -3.79350139327526     -1.67309440143139     -1.97707874856376
  C   -1.46880878499137     -0.07637929024973      0.06451902589268
  C   -2.48731321735829      0.82744979883619      0.31738235780956
  C   -3.86954966846734      0.63581671691370      0.38259662562048
  N   -5.02564140473795      0.61402940693937      0.51676774258387
  C   -1.90088137835445      2.12764063170828      0.59138482430941
  N   -2.63521075683685      3.18126901332447      0.95354859132587
  C   -0.52443489258959      2.03708115107715      0.45407413217217
  C   -0.17623031262933      0.69670591838002      0.18768952836927
  C   1.13028372117691      0.25583334902958      0.02032344741111
  C   2.23068515170588      1.13472452573202     -0.31065457890544
  N   2.14144273988291      2.43621127571195     -0.71183553401487
  H   3.83742378041853     -1.66156544225996      0.48167638572530
  H   1.35520222725978     -3.72922855657656      2.20583961894059
  H   2.38566616788766     -2.36703768307843      2.45984101658359
  H   -1.28634427503755     -3.34608432785713     -1.02675602599020
  H   -2.21569044763314      4.07150737113065      1.14662576448603
  H   -3.63302553122966      3.09949474985579      1.05076363309431
  H   0.17334600849367      2.81339729064723      0.71644788225484
  H   2.95805523365301      2.79711022434373     -1.18019991706485
  H   1.27563070474597      2.70822976931845     -1.14885444125458
