29
Coordinates from ORCA-job ./opt_b97-3c_parallel
  N   4.05840003357282      0.93263686375570      1.41335479970964
  C   3.07874090009879      0.69316736575270      0.83276927620299
  C   1.84338612146482      0.55802004001966      0.15490358280845
  C   1.18634677324649      1.75857050919635     -0.12880876774074
  N   1.82766327283819      2.92164298351255      0.16294848014908
  C   -0.04215322888947      1.96815400265817     -0.84928987658316
  C   -1.26590972577541      1.38972279741301     -0.73301126629540
  N   -2.34806043482048      2.03195103909186     -1.33877240552397
  C   -1.64188580627188      0.21029045326095      0.00972473488594
  C   -2.89885192027037     -0.01340336403571      0.58121941259301
  N   -3.93141092374317      0.82695969139209      0.76440712773560
  N   -3.07578147092512     -1.33943772752135      0.99335785089600
  C   -1.99485333122213     -1.96414922228112      0.62371239683857
  C   -1.00693684348002     -1.07347873971772      0.01829712980879
  C   0.24729344708039     -1.50692237334530     -0.33947166914980
  C   0.62313209369519     -2.86413228481529     -0.56872061470182
  C   1.98316760596399     -2.86773958486132     -0.68436151855151
  N   2.54398662076771     -1.62192003451056     -0.46271642291565
  C   1.55030015437228     -0.76763713784356     -0.30890312335103
  H   2.70414387537966      2.90002866839134      0.65829662722051
  H   1.29298891027039      3.76767285870026      0.22368293122983
  H   -0.00148268101907      2.85038235947984     -1.48124381654117
  H   -2.09973089001032      2.77983602136319     -1.96662274493139
  H   -3.02299568784218      1.40677439549842     -1.75161669497783
  H   -3.81727014835119      1.80990491404674      0.59517077142210
  H   -4.70175270146748      0.50790419413519      1.32354283497986
  H   -1.83502686696683     -3.00656232396633      0.85500204028119
  H   -0.04843982064924     -3.69209355590910     -0.72174128629681
  H   2.62416127135375     -3.69868830286033     -0.93819874880145
