28
Coordinates from ORCA-job ./opt_b97-3c_parallel
  N   4.96997966590483     -0.53354350709560      0.63047753739010
  C   3.92482109397543     -0.05959745087193      0.43280929822111
  C   2.65638379207205      0.47439579451210      0.20003012221959
  C   2.32748096470391      1.79605715923793     -0.05577663608388
  N   1.02171558232664      1.97527896839259     -0.31583001136084
  C   0.39904154962123      0.76217524187002     -0.20987868375681
  C   -0.99047390194835      0.69791188781750     -0.20716326193343
  C   -1.77577818622540      1.90541498672626     -0.22563592023149
  N   -1.32439967216216      3.13853272270422     -0.52249431657103
  C   -3.09944334664406      1.59376887797380      0.13953316413926
  C   -3.19054089971465      0.24422740025539      0.39418660970496
  C   -1.95042644675895     -0.39566048421351      0.14929379753423
  C   -1.87726536961564     -1.77480916785155      0.07316528118312
  N   -2.97133086459786     -2.52640515058738      0.45138031358615
  C   -0.86289299408969     -2.61311858609490     -0.51488464049344
  C   0.48841409907645     -2.56582432536101     -0.55118228987938
  C   1.46096053485977     -1.63343684007960     -0.12450852329296
  C   1.44154708992119     -0.27936322361551      0.02746765111101
  H   3.00886460366062      2.63396196494937     -0.06423186002857
  H   -0.30582693156075      3.21784532271338     -0.52768623513121
  H   -1.87803509610570      3.92664649357763     -0.23544306087302
  H   -3.90837082574114      2.30615612353563      0.19947500985830
  H   -4.12239530949987     -0.24763664979494      0.62154616469272
  H   -3.61201928722255     -2.11901197391849      1.10721095304857
  H   -2.79255152878542     -3.49795967677927      0.63382981659540
  H   -1.28241966777927     -3.53234938810217     -0.91062949270388
  H   0.93544113936125     -3.46886518358578     -0.95419564640284
  H   2.44942456156841     -2.06933481291463     -0.02509262414180
