28
Coordinates from ORCA-job ./opt_b97-3c_parallel
  N   4.69362892657701     -1.01364593044152      0.36318324945575
  C   3.59673970415614     -0.63728879533521      0.25933692412757
  C   2.31579819357815     -0.09776050805417      0.15190623485686
  C   1.10993732548259     -0.79253552354570     -0.09755298737389
  N   1.11119867088224     -2.05466284718241     -0.38291472262551
  C   0.35646447641232     -3.12608329909302     -0.34963337259417
  C   -0.78837339541194     -3.39005869157913      0.38279144585933
  C   -1.77612873722066     -2.50297350396506      0.79621098590269
  C   -2.05485325129807     -1.18278463316804      0.49006956538538
  C   -3.37355357893869     -0.71857880727843      0.66706987908199
  N   -3.61363598970752      0.46851961107121      0.11352070404665
  C   -2.43182439650516      0.90177697956717     -0.38834976459920
  N   -2.43243239681432      2.01976148233962     -1.13140230190184
  C   -1.35924909144783     -0.03286159048300     -0.15248028501200
  C   -0.00669864956026      0.24618315597797     -0.15901608532257
  C   0.64562379798141      1.50199956066974     -0.08955383739766
  C   0.13346831172871      2.78588214789314      0.06559059849254
  N   -0.20428009387472      3.89701241630507      0.18476161674385
  C   2.04233900723359      1.28498029123936      0.13397047240385
  N   2.93554809911263      2.24751348761150      0.31825321067320
  H   0.77436554220628     -3.96175893368515     -0.90718370059523
  H   -1.00646522966584     -4.43982769417903      0.53350357219883
  H   -2.59421522122423     -2.98241250274369      1.32472943115730
  H   -4.16951147182268     -1.27810671992226      1.13820439252098
  H   -3.25147813870685      2.59829788249281     -1.04897619558593
  H   -1.58261896787991      2.50181094410770     -1.35572294894231
  H   2.66624689954863      3.21612450008070      0.28763801989625
  H   3.89369779907785      2.02387062989371      0.52560683724681
