24
Coordinates from ORCA-job ./opt_b97-3c_parallel
  N   4.67054020475650     -0.17936078568119     -1.10077131311552
  C   3.58392465306828     -0.40296357995330     -0.75272572578187
  C   2.27531686316313     -0.68674726307965     -0.35152289627190
  C   1.76579901007564     -1.92161775054455      0.04204842567120
  N   0.49003341105263     -1.88900702451919      0.47857215605162
  C   0.06662532895366     -0.60136110383077      0.36261253702727
  C   -1.26660100432378     -0.27463742742303      0.27093241804342
  C   -2.29821712297074     -1.28835161402410      0.23594135198389
  N   -2.10246545259947     -2.56633099940855      0.56456790535068
  C   -3.49303493788194     -0.70774347323937     -0.24815926045904
  C   -3.25106007519074      0.61549289916970     -0.54030449623630
  C   -1.92028486395037      0.96930007052510     -0.19996628321296
  C   -1.50510108342970      2.27510167494040     -0.25623561086135
  N   -0.50769219795548      2.87950980633095      0.39892173516861
  C   0.67832521950895      2.47084110599655      0.68166912745093
  N   1.45904745158354      1.53870656577626      0.10104096887860
  C   1.26589763248517      0.27165464485195     -0.00968699053020
  H   2.31107673660376     -2.85431170152720      0.03121437703309
  H   -2.79408293416971     -3.25478675788163      0.32485527747531
  H   -1.12466127375935     -2.84249906461742      0.67974141922218
  H   -4.42529658222065     -1.23309929625527     -0.38618034669544
  H   -3.97560918407549      1.31464189567503     -0.92884133068183
  H   -2.17799907764742      2.96402076659335     -0.75883148445525
  H   1.20825411342378      3.05184907442578      1.43506951774282
