25
Coordinates from ORCA-job ./opt_b97-3c_parallel
  N   4.85303026583008      2.17512857882263      0.24057812187159
  C   3.84013635338347      1.60814542945907      0.18350875531656
  C   2.62289955681287      0.90991978347101      0.10544122867045
  C   2.49396569346589     -0.48315078771290     -0.16779334853587
  C   1.15382004576247     -0.82088764526544     -0.11078815467782
  C   0.66519962887808     -2.13273134118556     -0.44970192778691
  N   1.31263181322217     -2.78962111289185     -1.43017266049964
  N   -0.23618400449988     -2.81746750013211      0.21289554398434
  C   -1.26843523938574     -2.46877567388977      0.93991653973534
  N   -2.17852028038693     -1.54168571643581      0.76228449565214
  C   -2.14314911334915     -0.34247256384087      0.23465328229134
  N   -3.25958119348506      0.32468005847487     -0.06973478733716
  C   -2.82721418212216      1.59318735783178     -0.25971915829971
  N   -3.66835580306881      2.56993394414720     -0.57545930984995
  N   -1.49307476685602      1.84101565670430     -0.12528868769540
  C   -0.97116818417439      0.64053073133132      0.11584021561861
  C   0.40390395713662      0.40232269220909      0.17264779667213
  C   1.35052472457739      1.44604041979036      0.26989491100038
  H   3.31702340624732     -1.15815057993272     -0.33738419528928
  H   1.08592646817634     -3.75051025060975     -1.61582760840185
  H   1.96657395887353     -2.31288024853884     -2.02079674860905
  H   -1.50089318462771     -3.16402239127512      1.74407176344199
  H   -3.32724566762391      3.50773263364573     -0.68138451057259
  H   -4.64581712129709      2.37174249063218     -0.68568647317527
  H   1.10659407821057      2.47804735299124      0.45000257367570
