31
Coordinates from ORCA-job ./opt_b97-3c_parallel
  N   -4.67737569113595     -2.32376636281648     -0.75011959084850
  C   -3.64699851969784     -1.83962609868928     -0.50823651281867
  C   -2.45074839964058     -1.17509493938698     -0.21121614584445
  C   -1.18134167868644     -1.69224853285136     -0.13855182051507
  C   -0.26213058761276     -0.61691025113430      0.07137971996600
  C   1.09741465379484     -0.86814089309474      0.09283908251454
  N   1.57765520964652     -2.11827923304570      0.33515550494241
  C   2.90833491547912     -2.01960786358500      0.24798405959775
  N   3.68704359200574     -3.09398636446608      0.45244865176256
  C   3.36543370284198     -0.71180312826085     -0.10951204496177
  C   2.24091574668261      0.06276962365430     -0.23121069619168
  N   2.24785940704867      1.29160535641452     -0.77857506073599
  C   1.54146816328160      2.34226675252732     -0.50001441805202
  N   1.90290499254406      3.47926640204214     -1.18429055763025
  C   0.53682148346109      2.57251731046037      0.51060626597469
  C   -0.60801006906080      1.87853201903980      0.75695422302299
  N   -1.56262250719510      2.49155077573406      1.56967827083764
  C   -1.03611433030009      0.60909515194905      0.21049505606197
  C   -2.37595072451522      0.25351901525471      0.04616203906773
  N   -3.50158760900647      1.01333908310429      0.16097452140321
  H   -0.88767938130302     -2.71357824810787     -0.30058110681106
  H   3.25016144903879     -3.93274245714134      0.79294661497600
  H   4.67483408613913     -2.99020895599354      0.58793524872162
  H   4.37367718331686     -0.40867332570279     -0.33765413459535
  H   1.18649353708469      4.16142886656451     -1.36054595126034
  H   2.55797557164394      3.32875008221240     -1.93430616538274
  H   0.63627422246783      3.53190597555389      1.00772161460226
  H   -1.23060713959078      3.29533110855680      2.07714076769331
  H   -2.08104488112603      1.85925097515901      2.15884185300235
  H   -3.39117194150077      2.01196356104094      0.12844174497029
  H   -4.34002378230572      0.65154100960822     -0.26148813906938
