26
Coordinates from ORCA-job ./opt_b97-3c_parallel
  N   4.96766296116729     -0.22225484013199     -0.05804065258609
  C   3.83015233762763     -0.42393233982546      0.07217295566580
  C   2.44538980292134     -0.60351046149539      0.19093578574851
  C   1.78360893228179     -1.62587444811488      0.83762550155843
  C   0.39051125307114     -1.51944266479628      0.58657500536024
  C   -0.37718385682918     -2.64011878912367      0.80448419535066
  C   -1.57886294587279     -3.07364030087164      0.21693157924795
  C   -2.55370721130746     -2.35596814647566     -0.42369891409834
  N   -2.92569359810211     -1.09656375506430     -0.21830362566161
  C   -2.41581631946957      0.04108565392380      0.05162464905507
  N   -3.27786815435363      1.09417048358382      0.35558152284849
  C   -2.54756183041805      2.16969402109056      0.30628185578764
  C   -1.14896971922728      1.93447926203078      0.01507549085265
  C   -0.19749690914634      2.95148540341546      0.09526399690302
  N   0.57069460342062      3.82537709806727      0.15898499195214
  C   -0.98743329151165      0.55057492687335     -0.07684903046931
  C   0.18036676245389     -0.22434413878639     -0.12386150575914
  C   1.47193277104059      0.26357878388469     -0.42594419956566
  N   1.83141451066276      1.28150311940390     -1.22431277451944
  H   2.25573919246871     -2.45410305445689      1.33958589168055
  H   0.14575667513227     -3.41657397217671      1.35157594549066
  H   -1.71988602061029     -4.14811915202926      0.21070688762649
  H   -3.25226429920203     -2.90959286364534     -1.04481664001006
  H   -2.96473977972795      3.14841141563293      0.50274959310968
  H   1.14974072779071      1.95762499633698     -1.51606534614942
  H   2.76475338503918      1.64906130204875     -1.13882668061938
