31
Coordinates from ORCA-job ./opt_b97-3c_parallel
  N   4.77721600709633     -0.17171382534709      1.17456651891392
  C   3.79045158367820      0.40311827047416      0.95363245350639
  C   2.60198741600029      1.08551375275299      0.66639798561527
  C   2.36063336255479      2.43888769044765      0.81948081945012
  N   1.08610683082388      2.78489613144524      0.48090560329402
  C   0.42432558024025      1.66708680441552      0.20409720893515
  C   -0.86578216326261      1.75830836880964     -0.41409840187530
  C   -1.10806327945650      2.94152029230885     -1.15285186223438
  N   -1.42309147216662      3.85814086616220     -1.79490943293601
  C   -1.95733266609838      0.90829075488222     -0.27587788446292
  N   -3.12878608699278      1.23596149572218     -0.85470353668193
  C   -2.02613289775243     -0.29420288328311      0.56702238012234
  C   -3.14521181284839     -0.35568691513227      1.42341521681351
  N   -4.07250882334434     -0.45495514474881      2.12118773646959
  C   -1.25914058880027     -1.43142522836932      0.44435786841356
  N   -1.68003940785776     -2.59653951237339      1.04019419101293
  C   -0.04227602533852     -1.55501603075200     -0.31914443865796
  C   0.37363774542657     -2.72051459966272     -0.98472894655218
  N   -0.31657926842454     -3.81216908350301     -1.30940252104332
  N   1.72622302148203     -2.68113538415953     -1.34572440333487
  C   2.18664699115150     -1.57427039552183     -0.84411664060991
  C   1.13884201528018     -0.76568624520377     -0.20457092542838
  C   1.34443502292016      0.50691711870302      0.27272179039370
  H   3.05206146499719      3.18102382754166      1.18651718445544
  H   -3.25156251440664      2.13780282985460     -1.28740868955860
  H   -3.95544726504078      0.70388761215172     -0.65275649751826
  H   -2.47675531940769     -2.53577339679370      1.65608651277117
  H   -0.95237732660610     -3.20237268290563      1.38221461815457
  H   -1.28567706392912     -3.90929303653718     -1.06417450773313
  H   0.15480141131980     -4.55708981865954     -1.79152081950932
  H   3.21282582716244     -1.27174598311861     -0.98222345128526
