28
Coordinates from ORCA-job ./opt_b97-3c_parallel
  N   -4.74456078525766      1.16152382540073     -0.86905613126287
  C   -3.62195480108399      1.03080828447687     -0.58970829651847
  C   -2.27295835304045      0.83246926862037     -0.21087750302009
  C   -1.43172786624380      1.89299395345860     -0.47388783317328
  N   -0.22916772194230      2.23051805948403     -0.04689705303856
  C   0.87919193791958      1.59859603989745      0.17925284966882
  N   1.99496679523575      2.25940098961936      0.55432388779562
  C   2.98034282331450      1.37846870649578      0.32413868819919
  N   4.26088839193945      1.69284839979612      0.54280313279583
  N   2.63494756342067      0.14162482682016     -0.12845862297432
  C   1.28321765824621      0.15802085376185     -0.11948347063455
  C   0.51518378125159     -0.99092986705957     -0.17524164403078
  C   1.14518516315029     -2.28544483623312     -0.28678526377370
  N   2.43263434065971     -2.48792923917632     -0.62655286505645
  C   0.19950378200164     -3.28095383937762      0.00771260985837
  C   -0.98654864647549     -2.66502416168708      0.35249848324918
  C   -0.88524696244473     -1.25817036434316      0.22962375623580
  C   -2.00658365581655     -0.45113323793783      0.42464642655167
  N   -3.04669154052513     -0.93308050544615      1.14793031831533
  H   -1.89948130271740      2.68417405394841     -1.05673801283396
  H   4.98231582055780      1.08876764061749      0.19586463136255
  H   4.48734459205392      2.64383388326658      0.76929623977149
  H   3.02605969446374     -1.66432904747096     -0.54756651440619
  H   2.83658234110993     -3.38585304546823     -0.42596461529721
  H   0.36979493299315     -4.34469975445753     -0.05141944986475
  H   -1.89321641666012     -3.20970550187061      0.56531537706450
  H   -3.95943158466951     -0.52323745314499      1.04640900194639
  H   -3.01037780164102     -1.85453683709033      1.53943442487043
