32
Coordinates from ORCA-job ./opt_b97-3c_parallel
  N   4.49490374219261      0.85850603110535      1.25771525974479
  C   3.46505270984616      0.64255201073938      0.75144287054447
  C   2.22552086439468      0.38132367587799      0.13318261195193
  C   1.71935174437368      1.47008180216082     -0.66100773591367
  N   2.68281654293922      2.32083680511216     -1.14887436824046
  C   0.41757371717822      1.82155314432658     -0.97692832636136
  C   -0.82539029037928      1.46478645779997     -0.45114612156807
  C   -1.92184923073478      2.31409060176121     -0.49799426819087
  C   -2.98577364677973      1.64237537599756      0.13760232649018
  N   -4.23109802787978      2.12054160592228      0.35244982003611
  N   -2.66482299864410      0.39491998900659      0.52156733516480
  C   -1.36008055677472      0.20011643122093      0.15445999395583
  C   -0.81280240166851     -1.06114755629307      0.10583982616595
  C   -1.66353996207698     -2.25593862146562      0.11754691265111
  N   -2.97978551216706     -2.25189053374038      0.40102304761500
  C   -0.88821076672032     -3.35161063432165     -0.25708697208896
  C   0.42977916406114     -2.92252897505056     -0.39848977646616
  C   0.54795838797962     -1.54125771360499     -0.16435382982273
  C   1.80115345782345     -0.97143458255445      0.16010919673908
  N   2.76376796668893     -1.87896648251916      0.51892798659844
  H   3.63097102416894      2.20113400505251     -0.83785256953712
  H   2.42068236679745      3.27240792315510     -1.33422670406338
  H   0.36049460004289      2.70132940473483     -1.61144597755739
  H   -1.92955300088428      3.32260162830986     -0.87853073400959
  H   -4.79627863969241      1.62643221731457      1.02109340473259
  H   -4.38730423466220      3.10947635451301      0.28608103285203
  H   -3.39066506200512     -1.32641627023250      0.51380584601616
  H   -3.54640233752351     -3.01287673890827      0.07040894106782
  H   -1.25217764567899     -4.35605177734804     -0.40772587873096
  H   1.25520676186716     -3.56599666974895     -0.66161772800562
  H   2.46367744827414     -2.70282900885544      1.00706536573486
  H   3.67953685494361     -1.54388731016827      0.76445080609523
