30
Coordinates from ORCA-job ./opt_b97-3c_parallel
  N   5.13501847679452     -2.45896503500960     -0.39256385490990
  C   4.19055000488280     -1.79851560805876     -0.24095740491649
  C   3.05054805972420     -1.00048010019785     -0.04723123460834
  C   3.04743062214327      0.39492245464711      0.11207961427086
  C   1.71978772265916      0.84153365178260      0.17950796527258
  C   1.44425238754496      2.21543139147267      0.39820072575176
  N   2.47090267585804      2.94824710339499      0.91786391421791
  C   0.33175434390023      2.98681115657610      0.00502275390912
  C   -0.91703213491205      2.72316679343624     -0.50244039059435
  C   -1.75696453320819      1.61401640838250     -0.61380441313432
  C   -1.67692316783946      0.29846343567224     -0.21511517780426
  C   -2.83722444757330     -0.51746380204722     -0.16749909638270
  C   -4.14799083153798     -0.15193539723504     -0.46484448763851
  N   -5.26006863473065      0.10200488115344     -0.70624029182889
  C   -2.46797966740765     -1.78305468649706      0.34986186387165
  N   -3.31797268883317     -2.78570353039241      0.59478273366263
  C   -1.07320243672151     -1.79079714648556      0.57492110440369
  C   -0.53606909807193     -0.56558454325275      0.21589685061967
  C   0.86032189564200     -0.35386309430082      0.09524372911584
  C   1.72375792956530     -1.45137570085735     -0.02932955082707
  H   3.92787468512373      1.01270586722473      0.06233498157197
  H   3.18240951636025      2.48262881552896      1.44876840288827
  H   2.33031845249789      3.92020783081577      1.12187180837911
  H   0.52333333587186      4.05220381581758      0.08727147263992
  H   -1.42293254276525      3.63284409455725     -0.80742037137480
  H   -2.73990901388795      1.87793022628207     -0.98821551992628
  H   -4.30019170894098     -2.68233788992670      0.40985625192335
  H   -3.00175053582435     -3.65709568534737      0.97595683237480
  H   -0.52132128867255     -2.62927843977550      0.96450561727896
  H   1.42108946065818     -2.47344570375986     -0.17240325890617
