26
Coordinates from ORCA-job ./opt_b97-3c_parallel
  N   -0.58218421954747     -4.60432716249543      0.59903406471227
  C   -0.40802154037805     -3.47220753432214      0.40671272686717
  C   -0.19907897645348     -2.08076747964977      0.16967032188936
  C   1.17801675786962     -1.76417259467122     -0.08309705021031
  C   1.93234738066852     -0.63004803839534     -0.16824386297414
  C   3.30444063948397     -0.89189161492763     -0.45999773312079
  N   4.42435942932514     -1.08964170511527     -0.69396866707529
  C   1.65133185897273      0.78212241004070      0.02702288322392
  C   2.64660380163480      1.71516760618543      0.12844698731534
  C   2.01528694678234      3.00825874387525      0.26241054442050
  N   0.71875445565700      2.93724006536537      0.23028954585410
  C   0.40828917407320      1.56129465102334      0.09210000967479
  C   -0.91348127861955      1.23677140478572      0.01827203075956
  C   -1.92664768709198      2.30227344037884     -0.03566125366453
  N   -3.13377261906325      1.84459421023735     -0.14392139907174
  C   -3.01004712752370      0.44868006897843     -0.13841671479400
  N   -4.13932771251347     -0.25242437608436     -0.22490286994771
  C   -1.67665275801328      0.01122705374761     -0.03902393030012
  C   -1.35811273222033     -1.34205872948948      0.14843399235146
  H   1.76405227768930     -2.66312978881293     -0.22409948659126
  H   3.70709210855821      1.52555715291031      0.09940769537693
  H   2.52496841150612      3.95577922470705      0.37168395168054
  H   -1.70022655953552      3.35503101760552     -0.01260853815641
  H   -4.15383480184598     -1.25029987903010     -0.32214537867824
  H   -5.00791306822684      0.24752472944787     -0.29175184350094
  H   -2.23133532468807     -1.96412024079514      0.31393398745956
