25
Coordinates from ORCA-job ./opt_b97-3c_parallel
  N   3.84737910974025     -0.23914625425601     -0.28633693489158
  C   2.77566962728477     -0.67617664395217     -0.14853875963492
  C   1.50803081393724     -1.23592358060530      0.01230614582503
  C   1.25419006789156     -2.63099191146369     -0.20907111248020
  N   -0.01350023420299     -2.94185149659160     -0.21586759017139
  C   -0.70748047914154     -1.75627203381167      0.01335526825137
  C   -2.03593661804772     -1.86764123358295      0.26940498531170
  C   -3.01588596803775     -0.89564259503279      0.64282729297553
  N   -3.19584176826638      0.31127874844032      0.25256390371053
  C   -2.46991027361911      1.15314043853626     -0.50559033363318
  C   -1.14735660351523      1.46735257553348     -0.39503745395352
  C   -0.70480392664615      2.79769214750260     -0.66791305740428
  C   0.49896425175017      3.00122452104655     -0.05193806370153
  C   0.92953509962107      1.77967901244975      0.55339709510478
  N   2.02397481239736      1.69937239064015      1.34454696988762
  C   -0.01836339692611      0.76572463029597      0.27095146807369
  C   0.25426795327247     -0.60653761030605      0.13984812098357
  H   2.02176873399830     -3.37143710240996     -0.39037869374052
  H   -2.38474823642959     -2.89359585857491      0.30056398904173
  H   -3.77810473183413     -1.26743024370637      1.32683939456061
  H   -3.08389524259707      1.82148300169784     -1.10240367902567
  H   -1.30661457037328      3.54924066966322     -1.15422051072020
  H   1.04016571392652      3.93368594873880      0.00381014723104
  H   2.78325835031755      2.33175468871600      1.15490742336650
  H   2.34196901509925      0.79004744863269      1.62737489003357
