26
Coordinates from ORCA-job ./opt_b97-3c_parallel
  N   -5.26358279184845     -0.11946532122670     -0.34722141969182
  C   -4.10998561646373     -0.18091264876537     -0.23211754279323
  C   -2.69125774793006     -0.25892910869906     -0.09218043768739
  C   -2.21819431585033     -1.56411237747730      0.11142544328056
  C   -0.97164623175821     -2.13821439957889      0.20973894032975
  C   0.36354846725591     -1.74634300450225      0.10143975766225
  C   1.34211316937449     -2.74397865427824      0.09315056666868
  C   2.59739507389253     -2.17303456508324     -0.07934234319233
  C   2.47517509478246     -0.78222525917268     -0.14327353973826
  C   3.58457729107807      0.04014225718794     -0.37477827609717
  N   4.54204607567494      0.67069240392489     -0.57400612209112
  C   1.08750305855242     -0.42891848445659     -0.00925444408172
  C   0.62730243884542      0.87143583487011      0.10407110070141
  C   1.49130680580587      1.98390850753278      0.25746980883800
  C   0.75987741973244      3.15505655578517      0.22117544643185
  C   -0.59556098035059      2.85248337055420      0.03312818979631
  C   -0.76970908650886      1.46771450998940     -0.00692703176431
  C   -2.06022007755969      0.98366490335401     -0.14391818395241
  H   -3.01920034781833     -2.28855261084146      0.18348511555970
  H   -1.04311664186459     -3.21066155634963      0.35480510642321
  H   1.13592729934834     -3.79917868173329      0.16878281799492
  H   3.53220753049283     -2.70314047781574     -0.17078518414198
  H   2.55315495280791      1.93282416891122      0.40148403176901
  H   1.17109487548970      4.14708492497972      0.32857444066839
  H   -1.40006495057865      3.56683141600755     -0.03920992732175
  H   -2.77032632860223      1.79154074478400     -0.27635167427045
