29
Coordinates from ORCA-job ./opt_b97-3c_parallel
  N   -5.49521906160581     -0.91317797520768     -0.17157707975832
  C   -4.44106857477033     -0.42354865567100     -0.21366781822611
  C   -3.14589696124013      0.10829693386783     -0.22077895583429
  C   -2.70632205489066      1.28201657584998     -0.83975448033318
  C   -1.37194873483190      1.52702134637737     -0.50313886537428
  C   -0.81645439674362      2.77251700962540     -0.78564149309169
  N   0.10898049311673      3.44374023252460     -0.13459770801037
  C   1.05824243552536      3.00442460912902      0.65219290495652
  N   1.83395720139173      1.95123919329812      0.52750127426608
  C   1.67371236684235      0.72036938205490      0.14541155466731
  C   2.75438121631800     -0.12898264419670     -0.16514840955870
  C   4.09803127828013      0.21836806348920     -0.30595933762752
  N   5.23471117278895      0.42815263470413     -0.44174279871119
  C   2.28139901675218     -1.45890772414914     -0.15792208944169
  N   3.01462280849687     -2.53619485523241     -0.39584576489718
  C   0.87485552763417     -1.47568768478433      0.11854159207537
  C   0.16755305648151     -2.66454891133573     -0.04409812487711
  N   -0.33453088339446     -3.70903416649001     -0.17629468769900
  C   0.41827747901191     -0.14206253074104      0.22627078074457
  C   -0.88656115341626      0.33327009804003      0.24530670492632
  C   -2.04922211556357     -0.47446785973326      0.47159174516664
  N   -2.16083150551908     -1.54533090379971      1.27158958800254
  H   -3.33130523779451      1.95078702333073     -1.40892986422640
  H   -1.34071569262475      3.35265396607573     -1.54010160294171
  H   1.36348379997160      3.69433387989592      1.43589630581620
  H   3.98663947432580     -2.45051517255996     -0.63984485907611
  H   2.60683514217149     -3.45561488767786     -0.37452790183945
  H   -2.95270416038847     -2.15633784274812      1.15919413662966
  H   -1.34393682232967     -1.97662380343641      1.66111824017578
