30
Coordinates from ORCA-job ./opt_b97-3c_parallel
  N   -5.03336753382265     -0.52950443506280      0.63257812464201
  C   -3.88863289027694     -0.39751434801589      0.45290002503784
  C   -2.52701545326839     -0.21718403358597      0.22838977399262
  C   -1.85591017338730      1.04903967857371      0.13822954550588
  N   -2.50164744806034      2.21914813026206      0.26848289000689
  C   -0.47736723797682      0.85111198546007     -0.07244731800636
  C   0.40685834018413      1.87518306898945     -0.59641089039868
  N   -0.20804738345219      2.79165304343644     -1.44044585094752
  N   1.65769008805534      2.07651003130978     -0.38222852490384
  C   2.47420637871291      1.49816856350206      0.54629579001419
  N   3.06538093970908      2.42828559263097      1.35474982209696
  C   2.86392706084194      0.18022529582025      0.65101998450872
  C   2.29633272964744     -0.97507275848977      0.09811745894919
  N   3.00147755395239     -2.12165909946321      0.07302808183304
  C   2.11396245931189     -3.06466024437472     -0.32109585802227
  N   0.86577486214326     -2.66618880208099     -0.52014858626924
  C   0.90256825117247     -1.30358778206911     -0.26991966118421
  C   -0.25222768550449     -0.56427457869576     -0.14626537622480
  C   -1.57621246131241     -1.21105411043873     -0.00394362679739
  N   -1.75565417831595     -2.52203596339071     -0.04411579486597
  H   -3.50590215423418      2.23217897608948      0.29728822081388
  H   -2.02366228080888      3.07243782163024      0.03607658285540
  H   -0.89195072528224      2.40431643458304     -2.07142786607236
  H   0.44892324401837      3.40979281466127     -1.89131964062534
  H   3.86326533731985      2.15139624085085      1.89936648336154
  H   3.07009057323398      3.37446525691561      1.01624418186784
  H   3.76550425079907     -0.01203424273643      1.22012058676998
  H   2.41686293088239     -4.09070480485052     -0.47594940323332
  H   -2.66562602918697     -2.92499563224163      0.09659598183347
  H   -0.92776804259347     -3.08153512111890     -0.27348024183803
