30
Coordinates from ORCA-job ./opt_b97-3c_parallel
  N   -1.44025841367890     -4.12880870368429     -1.35652713446797
  C   -1.17585441826986     -3.10640848543277     -0.86805286543123
  C   -0.90375749607916     -1.84333396786222     -0.29064138031135
  C   0.28378692536716     -1.80636337645108      0.53553483347044
  C   1.27458932799764     -0.88748037676227      0.61039813200334
  C   2.30948287609088     -1.17284078068103      1.54951484952208
  N   3.13339480887626     -1.38710573190172      2.33820401237252
  C   1.44584053314144      0.35220705171165     -0.14034493559739
  C   2.66617030199250      0.83595093034235     -0.57958367478150
  C   3.88747933937188      0.14960786807511     -0.62848540961914
  N   4.91436425086935     -0.38640431734176     -0.72440097142177
  C   2.51418239163866      2.22305596878835     -1.00591947531053
  C   1.24059792215510      2.60318733411930     -0.76419950570992
  C   0.50386538112796      1.44972030707976     -0.26904132715857
  C   -0.84057528107356      1.47240471110161      0.01222146115563
  C   -1.52711337541288      2.72117927443599      0.39133500220613
  N   -2.74772966520931      2.52374941150689      0.77331521173039
  C   -2.98155464809673      1.14997980233559      0.56392115261397
  N   -4.20664991739847      0.69961160977099      0.81993118722650
  C   -1.84195686388930      0.46595716620050      0.11365371301816
  C   -1.86969623437133     -0.87472120730619     -0.43545033219869
  N   -3.06182225587461     -1.19173804638779     -1.06260067477499
  H   0.44197879312203     -2.70544452132908      1.12006184618848
  H   3.30655007594958      2.81078666852373     -1.43845948259588
  H   0.80275953643845      3.55640561843464     -1.00824515564557
  H   -1.06144616785143      3.69286741790263      0.46308383969696
  H   -4.44225548192581     -0.26569036776928      0.66479625421040
  H   -4.90277117945338      1.34344043701453      1.15196729600269
  H   -3.46009606146416     -0.45350824167208     -1.62047671302818
  H   -3.09130641359020     -2.08798677236181     -1.52622358776480
