31
Coordinates from ORCA-job ./opt_b97-3c_parallel
  N   -4.29070932079888      0.23876809948242      1.45780035636122
  C   -3.29424306898221      0.28860667208290      0.85610600755061
  C   -2.09296249184058      0.41983217092610      0.12386582670373
  C   -1.65158655411545      1.71052367359951     -0.07860150433939
  N   -2.43772053123286      2.76590775609008      0.30660607878483
  C   -0.47588001303812      2.14134594612348     -0.81225920777567
  C   0.82040219421505      1.78567279383298     -0.67599471217595
  N   1.80302555293476      2.60930734877087     -1.26692326980700
  C   1.38277515600427      0.65952627956187      0.03748168994150
  C   2.69490545374084      0.62804073665956      0.60099146527261
  N   3.47100262012831      1.67821094699934      0.87344661316830
  N   3.15249282991912     -0.62666918943157      0.89078078627263
  C   2.18579947986672     -1.43783951460425      0.48528477025837
  N   2.22663861544616     -2.75260365686043      0.55913470694732
  C   0.99043188144079     -0.69037508483008     -0.02824554756512
  C   -0.18105406967678     -1.32002118121677     -0.39055468731651
  N   -0.17273131091181     -2.68914406480058     -0.66986002004893
  C   -1.43618943768336     -3.02947593714867     -0.85517244245458
  C   -2.32251353826495     -1.93379112850461     -0.67441240013913
  C   -1.54757899787647     -0.82767526713410     -0.38887440637536
  H   -1.96859549913235      3.63017732736500      0.51171162567209
  H   -3.24393481321375      2.57336637052801      0.87990749161586
  H   -0.67645739706437      2.98992400892317     -1.46018691662603
  H   2.48772130992143      2.08503768396460     -1.79439378341720
  H   1.41388516100893      3.34521104131353     -1.83690449656677
  H   3.21524742717859      2.57769269683730      0.49914406842234
  H   4.41746994482710      1.50782534434911      1.16485500137349
  H   3.05423587170964     -3.21143342392415      0.89914105062125
  H   1.44142135296504     -3.24576616220941      0.11751447847185
  H   -1.70627237817196     -4.04336719532286     -1.11625709773720
  H   -3.39961994080330     -1.96705779132202     -0.70173075019144
