24
Coordinates from ORCA-job ./opt_b97-3c_parallel
  N   3.82546521293078      0.23933464714889     -0.07722106093238
  C   2.60642720533748     -0.34487970286913      0.05873036238551
  C   2.42844802876574     -1.76866527820001      0.25912056469333
  C   1.10599868972088     -2.04123900226468      0.20595713364177
  C   0.36631585565844     -0.79575902551038      0.02907798726980
  C   -0.99846072991975     -0.78018481773959     -0.09864792094415
  C   -1.82103312373740     -1.94429228564336     -0.26930632803623
  C   -3.10997913284358     -1.51580108111760     -0.21981334632494
  N   -3.21657079441276     -0.15484526021771      0.03547567799838
  C   -1.98911833173271      0.33333232384286      0.06931921158146
  C   -1.80738660387354      1.67891314364875      0.49043436330789
  C   -0.76859682903890      2.54599399656455      0.36531607550974
  N   0.35719277255174      2.51763137641023     -0.38740284728449
  C   1.22765398252123      1.59409035332702     -0.57591745786485
  C   1.36252050267215      0.26831116624042     -0.05122949755498
  H   3.89961794968774      1.23192216506428      0.05726338412909
  H   4.63536199632186     -0.28104215345514      0.20708474945255
  H   3.23005743398673     -2.47394299791237      0.42158615656153
  H   0.64762863899545     -3.00259996924850      0.35904452228366
  H   -1.47762790053969     -2.94516326257613     -0.46630136193217
  H   -4.00738636024000     -2.09990281554551     -0.35918642458736
  H   -2.69502715636216      2.08690653398793      0.95819515881149
  H   -0.91712667897686      3.52037222239787      0.82240726835400
  H   2.02852525852713      1.88497117036734     -1.26085543241865
