27
Coordinates from ORCA-job ./opt_b97-3c_parallel
  N   2.50581535431310     -3.00949458191642      0.65515108249850
  C   1.81711116675309     -1.93994389518991      0.14683828536277
  C   0.71618976377073     -2.34032245839211     -0.72665533111767
  C   -0.55733817159625     -1.88779381947610     -0.71155837440151
  C   -1.19410435068629     -0.76585292890260     -0.11278980453249
  C   -2.60556818574081     -0.68622962991513     -0.01212349009667
  N   -3.45025622844262     -1.72261744019023     -0.20138293076631
  C   -3.03662877112835      0.64291068841541      0.23967172217059
  C   -1.91651506351211      1.43872747869696      0.26463743270408
  N   -1.81478493874037      2.75024531593692      0.49045462108406
  C   -0.70864894040235      0.56898295082542      0.07497828107625
  C   0.55723811215944      1.08994731515207      0.03036069590310
  N   0.78184042244548      2.45947127764939     -0.11245778573576
  C   2.09044940081360      2.55675059321425     -0.20494633477892
  N   2.80989978601646      1.40133258158299     -0.06696911190731
  C   1.89224794260896      0.45039305771292      0.08588992457938
  N   2.27210367440215     -0.78151771892482      0.48059649532356
  H   2.02694312725714     -3.88650955874422      0.75503724542192
  H   3.19513307390589     -2.78830732893785      1.35467598427022
  H   0.90491754544344     -3.24477327523109     -1.29190867737770
  H   -1.23709957132779     -2.50621054292014     -1.29677912626098
  H   -4.42721213862357     -1.59752843714380     -0.01068284707490
  H   -3.10561842074620     -2.65999696074697     -0.10322848492385
  H   -4.05566033348909      0.95712353827505      0.40031464455615
  H   -2.64008788423053      3.32166881999787      0.50727263425677
  H   -0.89731287182960      3.16065450087524      0.29643857302386
  H   2.58603186870686      3.50220211239866     -0.37547653385682
