31
Coordinates from ORCA-job ./opt_b97-3c_parallel
  N   -4.94161956736424      0.00602990622573      0.43320474408358
  C   -3.86723176173233      0.38855127677814      0.19649003227005
  C   -2.57023515770650      0.83560940727790     -0.07992634320005
  C   -2.21918435530190      2.16670071323876     -0.49982892709153
  C   -0.86265158657082      2.24863942656084     -0.58193114428415
  C   -0.29341039765448      0.95626365078900     -0.25695206780455
  C   1.05282175837385      0.71320359958089     -0.06637736729996
  C   2.03439182675161      1.79361411052055      0.30844278249278
  N   1.66209351428529      3.04355444780359      0.65707638808485
  C   3.29029349569832      1.25815062730231      0.34028261200165
  C   3.15716673619512     -0.12911027757881      0.02270553472606
  N   4.19739140212969     -0.97164826538560     -0.12256769893979
  C   1.80642409086692     -0.48264931735164     -0.18207286263652
  C   1.44456943019903     -1.71083042353554     -0.84294159822618
  C   0.36341902873195     -2.48744033016065     -0.70433693274340
  C   -0.73012000328584     -2.37477423224775      0.25461028965306
  N   -1.03942992829071     -3.57781084149505      0.86556508999535
  C   -1.46292379501291     -1.27043296023511      0.55095328730074
  C   -1.41435521912573      0.05322660243995      0.02135234660816
  H   -2.93222464505559      2.93675311361416     -0.74735480199714
  H   -0.30963216508037      3.07666973665168     -0.99392855489786
  H   0.68789407616980      3.20685876233040      0.85023945162453
  H   2.31356714114023      3.61082882996251      1.16997524581573
  H   4.19593659330590      1.74745379788268      0.66209534213945
  H   5.12580612026344     -0.66706028118162      0.10372687998412
  H   4.03451618756351     -1.96236051476125     -0.10165232384760
  H   2.16726441288783     -2.05609455640918     -1.58261155797878
  H   0.31233311554236     -3.37170720670021     -1.33428254070494
  H   -0.72707333113937     -4.41111032638457      0.39853572173890
  H   -1.96422302427177     -3.66262557863288      1.25464222136290
  H   -2.31530406960716     -1.44541784129095      1.20210373396629
