26
Coordinates from ORCA-job ./opt_b97-3c_parallel
  N   0.16871902059049     -3.53521353082627      0.84851922166721
  C   0.08780887142484     -2.28291796817986      0.28064056351899
  C   -1.23171659988662     -1.79971025781183      0.08991763904201
  C   -1.74814041087876     -0.54380239124706     -0.10903181818763
  C   -3.12990341419316     -0.31626988190367     -0.27793108329626
  C   -3.31332271931203      1.05024227050851     -0.20065011899134
  N   -2.16916616501990      1.74917711154309      0.00248238742064
  C   -1.16729564667548      0.85162398850321      0.04421669563360
  C   0.14131717199017      1.27831166158865      0.26891388616159
  C   0.43165432727880      2.62108731430997      0.63628472376800
  C   1.79758662896023      2.80489628759743      0.63201073921338
  C   2.41732221824805      1.60525376810770      0.21173101516307
  C   1.43708131838345      0.63704965064138      0.00530938198018
  C   1.74842150453423     -0.66067605340416     -0.48989182709730
  N   2.86741854049486     -0.75584725348118     -1.26669958740895
  N   1.22885961398817     -1.82057889630769     -0.16174367014323
  H   -0.55702799736186     -3.80306132302863      1.48889138860742
  H   1.09558774079969     -3.83648890636732      1.09593019758408
  H   -1.97771234517454     -2.58657474243202      0.13609396408040
  H   -3.88235409873010     -1.07612274448042     -0.41281194525979
  H   -4.25005699613826      1.58262615616162     -0.29846843036547
  H   -0.32791540040780      3.34526293480942      0.87193244119263
  H   2.31706912450212      3.71232867153899      0.90067224695385
  H   3.48008400128586      1.44083551748399      0.12535898185011
  H   3.13931103719758      0.04180987893471     -1.80991734292765
  H   3.09008203880005     -1.66451660145867     -1.63300567965959
