30
Coordinates from ORCA-job ./opt_b97-3c_parallel
  N   5.32080324031090     -1.10037888993015      1.10652723979268
  C   4.21460043043988     -0.95872611714219      0.77758469937061
  C   2.90155218611630     -0.67930291897939      0.37430472009341
  C   1.86987750601894     -1.54166135630703      0.14487320699161
  C   0.68849375393657     -0.77286263657721     -0.17771719981910
  C   -0.51195848626326     -1.40612200549227     -0.40251270450753
  N   -0.51677901673758     -2.76765482791073     -0.66152571501651
  C   -1.78826363813408     -3.10732098197945     -0.75435361767855
  C   -2.68546614939139     -2.02453302151561     -0.52241266994154
  C   -1.91463296200039     -0.90742717980847     -0.30582071895331
  C   -2.40996785793897      0.31637752835844      0.25050180564429
  C   -3.64160607552531      0.23234757477815      0.93304345358280
  N   -4.65654237767308      0.20908401210752      1.50421620690510
  C   -1.83849034754020      1.59248671966308      0.19685740875524
  N   -2.32778534940673      2.58407535104145      0.98680398466040
  N   -0.90485251189539      2.02562306110406     -0.68021833667767
  C   0.32962884852533      1.69604527177956     -0.83017718478956
  N   1.07179507866754      2.50722396100451     -1.66703087262820
  C   1.07042728940777      0.62115029299726     -0.20513497144770
  C   2.42811682439378      0.67930996715431      0.10403484162875
  N   3.25867093640570      1.73571953645877      0.12153691582154
  H   1.87680557367866     -2.61180532817829      0.24406515984713
  H   -2.06751816787872     -4.12384210454099     -0.99838350052213
  H   -3.76058040365273     -2.07824084104626     -0.47244346248181
  H   -2.14503065565517      3.52550561861318      0.68910096455391
  H   -3.18328331191713      2.42989243572105      1.49466802617043
  H   1.78045245696438      2.04802216891956     -2.21584313615984
  H   0.51740464060970      3.17153622266261     -2.18389535791151
  H   4.18643692940286      1.63747701130831      0.49450816289487
  H   2.89712296003562      2.66313176054529     -0.01153912377999
