34
Coordinates from ORCA-job ./opt_b97-3c_parallel
  N   5.53144899421587     -0.30385449668634      1.62270308033642
  C   4.48256122663395     -0.41247803876251      1.13001103506674
  C   3.21149331769347     -0.47246981015586      0.55209091486547
  C   2.56918589689983     -1.59223007894917     -0.03127561822436
  C   1.27015373459160     -1.27981229798939     -0.40766054121968
  C   0.51086536867128     -2.11681329439037     -1.32666635090678
  N   1.28658404569780     -2.73400831080309     -2.27310167591284
  C   -0.81657884928514     -2.42255625499154     -1.26348054678111
  C   -1.73046687390872     -2.14312433586036     -0.20448398603663
  N   -2.57230437668952     -3.14818913088954      0.10552547575342
  C   -1.92273347330491     -0.90222599880725      0.43780160086765
  C   -2.83423728213533     -0.90518757687771      1.51447884213872
  N   -3.55825732466894     -0.99750153098537      2.42180542422516
  C   -1.47546578429670      0.37158437703683     -0.03065746855178
  C   -2.29532678353477      1.50929715948817     -0.03092243574434
  C   -3.68864009934957      1.53285665852427      0.13696002353657
  N   -4.84556074138792      1.57559688336251      0.23488656116687
  C   -1.51981263838802      2.65157936371291     -0.35399069541654
  C   -0.19478924930314      2.28047569265381     -0.48436037060849
  C   0.81645227903637      3.12171788711078     -0.96106535517924
  N   1.68364543106362      3.81671259711337     -1.30951910156148
  C   -0.09880590945072      0.84955196886012     -0.28413817143497
  C   1.05200011345635      0.11147030757016     -0.12466553123180
  C   2.32786415963454      0.60811850956694      0.48229182037161
  N   2.52991399941380      1.78711828927860      1.06827315873251
  H   3.04716136956963     -2.54626320634998     -0.18956580999495
  H   0.82645292565692     -3.24553977259910     -3.00682925506052
  H   2.13212350831772     -2.26766369942701     -2.55165708875597
  H   -1.19166432444004     -3.11979969552327     -2.00496152073301
  H   -2.38209375371388     -4.08128999415665     -0.20795660693209
  H   -3.31235573537686     -3.02026792933187      0.77602669401696
  H   -1.91719611100650      3.63685222711394     -0.53351849931675
  H   3.42593672285430      1.95282132744852      1.49887859845626
  H   2.02051328543036      2.60780110949437      0.78887827066770
