31
Coordinates from ORCA-job ./opt_b97-3c_parallel
  N   4.72443089621976     -1.86319093428462      0.48873625288731
  C   3.72698658373198     -1.28370260351667      0.31852913122963
  C   2.54599281598510     -0.57900030304094      0.10305410095162
  C   2.45231395946309      0.78499151780845     -0.33446032262978
  N   3.51717055757091      1.48129800291743     -0.77371278071077
  C   1.11964577014921      1.22571135536885     -0.29023076734877
  C   0.73547434140242      2.44185651121763     -0.93285209383604
  C   -0.28731882727850      3.29347598310593     -0.69403089361136
  C   -1.13157914280155      3.26521577841993      0.47688445569258
  N   -1.79039755840754      2.31566944080944      1.01717853500358
  C   -2.01270533799445      1.06806976504159      0.47455848416211
  C   -3.28268982959746      0.55965821744895      0.39027634979469
  C   -3.20462053324805     -0.81553744175431      0.01718009462422
  N   -4.26079362731910     -1.61465322942526     -0.21771637465115
  C   -1.85363083462884     -1.19881773806681     -0.05413858701022
  C   -1.48389047556896     -2.41262796899061     -0.62356431880235
  N   -1.23504680407676     -3.46305361542449     -1.07040681372724
  C   -1.05400694597601     -0.01498079783142      0.18799612306954
  C   0.31791836727640      0.10158919769222      0.13446211966250
  C   1.25640800917339     -1.00999162483666      0.39655641795559
  N   0.95617436847342     -2.15645821908773      1.01161932522319
  H   3.48326080850231      2.48373113857625     -0.78727443979181
  H   4.43156752826284      1.07105815903711     -0.69799729504978
  H   1.41919837104256      2.76179659451038     -1.71731990463484
  H   -0.30539478277551      4.21877249022339     -1.25793518469953
  H   -1.18683109278835      4.21674260554075      1.01139312159455
  H   -4.18281291916712      1.09399225407105      0.64694583107083
  H   -4.10108645755522     -2.53429526044676     -0.59381735415680
  H   -5.15663986895535     -1.20553726381414     -0.40998878111182
  H   0.00512393524236     -2.47102029986058      1.07035119130298
  H   1.66125365454318     -2.87055293360805      1.07865978414792
