29
Coordinates from ORCA-job ./opt_b97-3c_parallel
  N   4.39620858768751     -1.82154805685199      1.19583132473572
  C   3.39761726646006     -1.48934574349524      0.69898459676420
  C   2.19290966091693     -1.03429115318298      0.10999301820599
  C   1.55408043595236     -2.00239467131219     -0.74295234026803
  C   0.25603469948513     -2.30256301141322     -0.96987275726678
  C   -0.95721062437216     -1.80129156511461     -0.41579125436184
  N   -2.01909674497682     -2.60562899785816     -0.43418404062385
  C   -3.07631537422062     -1.91020833609659      0.07559627695393
  C   -2.76504002166900     -0.59127678226696      0.33200751119501
  C   -3.62941449974060      0.36798702310121      0.87194461200142
  N   -4.35482018531292      1.16494783134568      1.31044608681848
  C   -1.35540528812803     -0.45225784696017      0.02826508831719
  C   -0.67607039287343      0.73231480463830     -0.13617632972653
  C   -1.38857753874389      1.98521731937528     -0.42494771117071
  C   -0.48643404959380      2.93196323290566     -0.73859605412316
  C   0.84461701258995      2.37052134309761     -0.55850766146095
  N   1.96351886346701      3.08504625299454     -0.77205040684892
  C   0.73648975786148      1.02330168129062     -0.19669582767409
  C   1.84968898487524      0.28086602375940      0.35866990772904
  N   2.71162594618105      1.05911209498214      1.10808405135130
  H   2.25605429938966     -2.70271923359571     -1.18145265283086
  H   0.08174027531093     -3.18295619977608     -1.57567888980044
  H   -4.02402470940945     -2.39582453419913      0.24798452170842
  H   -2.45772421562736      2.07371334148290     -0.49039213177588
  H   -0.68775783199064      3.93057659638560     -1.09482981860189
  H   2.85349513613926      2.69363717341945     -0.51008582857186
  H   1.90992349447078      4.08159183396067     -0.87848565400109
  H   3.45337756485555      0.57516010129114      1.59171158354676
  H   2.26798965361595      1.76955894989310      1.66653382357955
