27
Coordinates from ORCA-job ./opt_b97-3c_parallel
  N   -4.62998019529213      0.67698317767100     -0.55707295295525
  C   -3.51177063962311      0.55616164162968     -0.25398085989944
  C   -2.15476203559406      0.37760960670511      0.08646881168855
  C   -1.63241430001240      1.40703694956917      0.96945642175448
  N   -0.51648949982523      2.03340602338349      1.01249608737142
  C   0.59663119486159      1.91275186283626      0.23068388809665
  C   1.36574187440031      2.99378714983984     -0.10030507905404
  C   2.57392280187920      2.53923644605538     -0.74048032517436
  C   2.63101126843218      1.17760439364473     -0.70828522025159
  C   1.38054542945100      0.69907122833571     -0.15516733327969
  C   1.03184655710028     -0.60757429949570     -0.00099265378194
  C   2.01196596339023     -1.72829205812871      0.15388394727663
  N   3.33904953270093     -1.58614606367479      0.28287486475536
  N   1.41404151393457     -2.89350464760388      0.29281153506269
  C   0.07416623048863     -2.62854111194357      0.18489573676526
  C   -0.24345848630506     -1.28466305249146      0.06111317572335
  C   -1.56740850344603     -0.82269098379167     -0.28969632267057
  N   -2.32762923809555     -1.74652859656944     -0.93922039627985
  H   -2.37622717425020      1.78294469942547      1.67168322371573
  H   1.11480217746183      4.01630005930646      0.12916951997202
  H   3.30976096551175      3.18690549856131     -1.19356406868544
  H   3.35734661206939      0.56539225037965     -1.21644025398650
  H   3.72892389007499     -0.67389419453142      0.44068363398930
  H   3.84816625225052     -2.37939467745268      0.63505805858085
  H   -0.62858651528875     -3.44814452474737      0.21513701891064
  H   -3.25301846204862     -1.49243612924786     -1.24328138060628
  H   -1.86273470442615     -2.45179056956459     -1.47996718533794
