28
Coordinates from ORCA-job ./opt_b97-3c_parallel
  N   -4.58769281851343     -1.90102110978945      1.45196195199069
  C   -3.59673364866460     -1.53352308791217      0.97108254009281
  C   -2.39419064935400     -1.05644444392969      0.37773736557190
  C   -1.34354444702644     -1.92078434219469      0.34611668507794
  C   -0.04541200979141     -1.81124495616396     -0.22469870239485
  C   0.70404518062855     -2.95354184366121     -0.54111234522203
  N   1.96932375159233     -2.72109077672795     -0.96301225022179
  C   2.13081914655834     -1.41244730297666     -0.84826474377907
  N   3.17042322631963     -0.79060896340746     -1.37540121114242
  C   0.89330064063269     -0.73293590042630     -0.29274175293016
  C   0.81887291370025      0.56779359790802      0.13290517146888
  C   1.94465765806245      1.37065882307961      0.64887648669762
  C   3.21298438763051      0.91449368213346      1.03540786176867
  N   4.28003727981431      0.55849498612918      1.33205651103829
  C   1.46359011102283      2.61957497526543      0.95304308752517
  C   0.08386289579776      2.68069817929094      0.59120431378556
  C   -0.33976443178944      1.45107192649791      0.15315863669674
  C   -1.67589797289514      1.25900701638009     -0.41498652354758
  C   -2.17027206478124      2.39323014262961     -1.12200334522462
  N   -2.54947775847453      3.33478225368261     -1.68555563740496
  C   -2.53841386773370      0.22761881896657     -0.27517501644862
  H   -1.55416072736405     -2.90076066738877      0.76009230166935
  H   0.34895206631010     -3.97054961706790     -0.44554362273820
  H   3.34555150370135      0.18586635232661     -1.22005712836247
  H   3.92426209304783     -1.35257538730676     -1.73686345414376
  H   2.02937950018060      3.40703090158895      1.42318519795047
  H   -0.52578386137211      3.56912495196083      0.63060365892678
  H   -3.53076640813976      0.39540093761346     -0.67631230640031
