33
Coordinates from ORCA-job ./opt_b97-3c_parallel
  N   2.68334119397202      2.55847249127114      2.12736848608747
  C   1.98480803472407      2.24687117426165      1.25376963088584
  C   1.10974421639655      1.84396869008123      0.20638359640881
  C   0.44006162414917      2.79832784082751     -0.46643119964092
  C   -0.56419100086776      2.62106378299448     -1.48938675070059
  C   -1.67655091938717      1.87229066769287     -1.39169855108197
  C   -2.07165089260064      0.95443098632288     -0.35386798711195
  C   -3.44866336362243      0.75167115123641     -0.00447403729563
  N   -4.44180335187133      1.54876030521119     -0.41056720745516
  C   -3.61275612033480     -0.40996512045919      0.78727334231262
  C   -2.36200652071882     -0.95951118383022      0.94007854051453
  N   -1.99809098282037     -1.94420788162198      1.76435735619393
  C   -1.36492468291290     -0.13001628504843      0.17942778121738
  C   -0.02904288681730     -0.49083784024416     -0.00878276564149
  C   0.49607382809862     -1.84084230673082     -0.13867462472170
  C   -0.20326357172243     -3.02518395094339     -0.36744188924970
  N   -0.74509334578082     -4.04532823367763     -0.53140017667802
  C   1.88190419194547     -1.74958697323408     -0.30938349020042
  N   2.75574510655829     -2.75759638462330     -0.50692780390867
  C   2.24402318421510     -0.35969630240226     -0.23317802915620
  C   3.56664638277311      0.08212338611143     -0.33951618803528
  N   4.68730652599341      0.36623895424971     -0.47093850395289
  C   1.08133414764064      0.40025032225031     -0.08335075153325
  H   0.68156879085291      3.82867456660476     -0.22284420048860
  H   -0.48651401466751      3.28983974402973     -2.34006705893518
  H   -2.39534914837246      1.98906411113102     -2.20156933906428
  H   -4.24467476896074      2.43347034075410     -0.84182671116925
  H   -5.39667314917639      1.35162863058212     -0.17479295996674
  H   -4.51946649524762     -0.71933729665945      1.28032746710084
  H   -1.06895723973434     -2.32358094674313      1.71119935840235
  H   -2.69614731749005     -2.53567093040323      2.17845806724479
  H   2.39800372682685     -3.67029418577957     -0.72912285520877
  H   3.67142161355875     -2.54090066891252     -0.86026336977159
