33
Coordinates from ORCA-job ./opt_b97-3c_parallel
  N   -4.95136365252699      1.58501568618273     -0.62109097081651
  C   -3.90672593907737      1.11843881895130     -0.39449753897138
  C   -2.66957090354820      0.54708978596279     -0.11173664553162
  C   -2.45675090960532     -0.76737589803564      0.42444355194648
  N   -3.45660620683876     -1.52866361481431      0.91466500228060
  C   -1.09045083652825     -1.07943657944624      0.42678838988201
  C   -0.58637097171223     -2.18390422428822      1.18434997201890
  C   0.51256252762379     -2.93808636724518      1.00172464803740
  C   1.32838255857538     -2.93480819447443     -0.21484418369311
  N   1.50182842450285     -4.17892305999084     -0.76015411921608
  N   1.92175106405787     -1.95526677581989     -0.79950611097429
  C   2.03756540152868     -0.67768663448814     -0.33508660867088
  C   3.24648235828530     -0.02282104109456     -0.33466482033062
  C   3.02945943978131      1.35233175215651     -0.04670559568268
  N   3.99288369916898      2.28052387786923      0.10085716454756
  C   1.64450401782008      1.59255141892822      0.05983128752857
  C   1.16053907984810      2.78852636130700      0.57820523033955
  N   0.80802938939231      3.83004615573553      0.97426260463862
  C   0.97059498858015      0.32316360644967     -0.08771868711159
  C   -0.38645987566556      0.08551798065499     -0.05315395473071
  C   -1.41825618572546      1.08117701989522     -0.40786930805371
  N   -1.21254041181633      2.21162686610137     -1.09050594567964
  H   -4.40464094523092     -1.21963152068062      0.78813279105511
  H   -3.32628750762654     -2.52042555717068      0.98999404313795
  H   -1.20206284089602     -2.46306690242876      2.03864205482743
  H   0.70427055508276     -3.74826697953874      1.69440159249312
  H   1.92919669208021     -4.19409611105050     -1.67193660727602
  H   0.78599272370446     -4.86527791390274     -0.59968422980439
  H   4.19256633045644     -0.47480351799347     -0.58417519739270
  H   4.93600455202174      1.98643351220149      0.27700219344281
  H   3.73936149055041      3.19051674942062      0.44792578681568
  H   -0.29531590865284      2.61655319809061     -1.13496330612055
  H   -1.98113055920996      2.84842395955581     -1.21389383033500
