26
Coordinates from ORCA-job ./opt_b97-3c_parallel
  N   -5.04332476918755      1.08072735220895      0.19303959134868
  C   -3.92481264489879      0.77504577188132      0.10993703131087
  C   -2.57259796471237      0.40968864036192     -0.00022872684661
  C   -2.10496175616031     -0.85937912759827     -0.34866213627362
  C   -0.69777383172280     -0.86124751055305     -0.22742684595395
  C   0.02667658123552     -2.05876650826614     -0.35088528755338
  N   -0.53441740870276     -3.07250972565655     -1.04794238417562
  C   1.17274666546416     -2.43131536542603      0.42028283787573
  C   2.25244133146900     -1.75086831783291      0.89093023264711
  N   2.82820227370946     -0.59431946636500      0.53115679538612
  C   2.38025639372494      0.53819831938509      0.10690213604282
  C   3.30034562575337      1.58584228519376     -0.25047669569659
  C   2.58142344196523      2.72525580652068     -0.44014451611508
  C   1.17821032553040      2.45952567515783     -0.26546799151509
  C   0.98145990735047      1.13817524772308      0.03549827066144
  C   -0.29109577855534      0.50882459977954      0.14021241518294
  C   -1.46414072938873      1.24327066856186      0.27437463208497
  H   -2.73688663771781     -1.72103294026051     -0.48573003851817
  H   -1.31518926586083     -2.90437673753543     -1.65380723243082
  H   -0.07124515321840     -3.95805105766929     -1.12587028519056
  H   1.17349509065686     -3.48296593332328      0.69001158475578
  H   2.88840387179495     -2.32519963681999      1.55939880476795
  H   4.36842479453871      1.45433246187266     -0.27075670664284
  H   2.98666592354145      3.69401005389175     -0.69358780328774
  H   0.40015077718374      3.18409619168481     -0.43998498484141
  H   -1.52797778429255      2.28731876288317      0.52808271367697
