32
Coordinates from ORCA-job ./opt_b97-3c_parallel
  N   -3.46579687800698     -3.37527930646079     -0.97794635050587
  C   -2.69725328398950     -2.55456231843041     -0.67571511457166
  C   -1.73576756571672     -1.58584870884117     -0.29151767005752
  C   -2.25726080019668     -0.29421682835626     -0.21077465158518
  C   -1.80430400854809      0.98206975164223      0.04372425097944
  C   -2.76483995753385      2.03285335838413      0.18186691800519
  N   -4.12548167489550      1.87295545096823      0.24399561584761
  C   -2.09515012783490      3.26568020175764      0.19593198834717
  C   -0.73743035484074      3.02823236717031      0.07361108068242
  C   -0.48044365515464      1.64023400656172     -0.00138621667878
  C   0.81407986901266      1.14202936208235     -0.12764439657522
  C   1.93591770295600      1.95305246999260     -0.35871522534603
  C   3.09749838172718      1.20961004508042     -0.16296787242342
  N   4.36680101631078      1.63685773822493     -0.25995730636346
  C   2.73862636345986     -0.12911404676485      0.18472844167673
  C   3.66028108583509     -1.15288617133977      0.37557041095541
  N   4.46148138194260     -1.98683599379102      0.53476137874766
  C   1.32900271693929     -0.24320002297880      0.14716448623010
  C   0.75445327101347     -1.48296507157226      0.35454533924686
  C   -0.46484093628647     -2.11988921171599      0.09303386965192
  N   -0.42249763271885     -3.47400604890670      0.24385162913879
  H   -3.32369658963565     -0.30874793149734     -0.41348130537385
  H   -4.47085225349243      1.06529443402340      0.73322342176968
  H   -4.64938455205457      2.70190756731801      0.46461585886436
  H   -2.56304377983030      4.23083903455771      0.32011377147437
  H   0.02004693642298      3.79274288842906      0.10355211045921
  H   1.91488963320316      2.99729906065640     -0.61798108215607
  H   4.57219244442339      2.53532377531555     -0.65487601758667
  H   5.12184854568826      0.97562664561551     -0.20900680924656
  H   1.50628504604730     -2.20267431213523      0.66347974828814
  H   0.46503189516937     -3.93734927065288      0.30239669598725
  H   -1.21059887581547     -4.04171196153671     -0.01390323198207
