31
Coordinates from ORCA-job ./opt_b97-3c_parallel
  N   -5.44146624767481      2.00669543990113      0.41474588228069
  C   -4.37788168750965      1.55912342139653      0.26261152610148
  C   -3.13464723050296      0.94895955975828      0.05781233488432
  C   -1.87533666343592      1.50040085494754      0.22541356054709
  C   -0.89316794072008      0.50130693950764      0.00446124611924
  C   0.46264018038069      0.81104245029695     -0.01101404812956
  C   0.98810101961429      2.10560368770323     -0.11894706382788
  C   2.37855934770889      2.03360195009564     -0.15096187736796
  N   3.24756949864453      3.03572066576316     -0.30865309650315
  C   2.79111464295511      0.65773580024898     -0.01253802488512
  C   4.11821911290671      0.24898867689816      0.09455371059630
  N   5.25034220986662     -0.01532908624424      0.17522246428334
  C   1.64769565431671     -0.13245669909682      0.08899060865389
  N   1.73606116912921     -1.40781236984428      0.41863297641966
  C   1.07087413862152     -2.49420639950116      0.14836017272878
  N   1.57950701089543     -3.62260376505161      0.71659799495017
  C   -0.04426343015921     -2.71516235033585     -0.73316465261362
  C   -1.17326298756895     -1.97274857778413     -0.86581008427374
  C   -1.60840703748631     -0.73366670186617     -0.34783051482796
  C   -2.97475864096931     -0.42717157051222     -0.32147407445304
  N   -4.01907375855521     -1.25288573020960     -0.63886884019030
  H   -1.68133656538061      2.51087743668074      0.53981882081603
  H   0.41643156198750      3.00329516896065     -0.28120640383837
  H   4.23671624807656      2.85770001556712     -0.31090302883021
  H   2.94265104534737      3.99046097186317     -0.34379675101285
  H   0.99986075528170     -4.43428058087127      0.82341386602597
  H   2.34741331735897     -3.50613128713718      1.35563002720734
  H   -0.03934408187860     -3.67969739931901     -1.22554654864326
  H   -1.93330835502944     -2.46407815236540     -1.46945177183033
  H   -4.93779340467699     -0.88782829638522     -0.44814855221754
  H   -3.92763878144343     -2.22098428446489     -0.38632833846905
