34
Coordinates from ORCA-job ./opt_b97-3c_parallel
  N   3.18834338381155      2.21999357467379      1.70599452927917
  C   2.31810226222006      1.84128155450331      1.03092861120460
  C   1.19735991037280      1.48739953639272      0.25312651822226
  C   0.38285341716995      2.55703698722714     -0.17392016540383
  N   0.61515674640566      3.79230286486447      0.30780964512192
  N   -0.53959308607963      2.50309776912763     -1.15441919481904
  C   -1.68376790847624      1.89371114952025     -1.10427670553227
  N   -2.57951051352137      2.19199225918424     -2.08679137039940
  C   -2.14201239183639      0.97958480291523     -0.08330713104610
  C   -3.45956639074674      0.91799172541993      0.36508729877733
  C   -3.68164731645560     -0.26183716330667      1.09404916499213
  C   -2.52744235796811     -1.02269223647214      1.04618809897121
  N   -2.29436337313835     -2.13479702242136      1.78845890207260
  C   -1.49896612231042     -0.25630447454207      0.28582432034232
  C   -0.22751239794259     -0.69616136742322     -0.02906904104184
  C   0.17708557351464     -2.06402108897391     -0.18660753918761
  C   -0.61495247655019     -3.18098296067640     -0.43055107331670
  N   -1.23835704435546     -4.15355252769879     -0.59856297356805
  C   1.57597125897268     -2.10819638652753     -0.31576451213399
  N   2.32573641235479     -3.18370893722690     -0.54885844771815
  C   2.08488847008851     -0.77276553320639     -0.21392933557692
  C   3.45059838616390     -0.50152835762156     -0.33651642695711
  N   4.59984999144844     -0.39457191441005     -0.48549214345568
  C   1.01766019081784      0.11753267427152     -0.07940375282786
  H   1.41060226175872      3.97465664728689      0.89694828244774
  H   0.18574014672410      4.56620507361450     -0.16503277841853
  H   -3.26790936558775      1.50036256536737     -2.32175351248574
  H   -2.25098470278830      2.77591095052281     -2.83761148405489
  H   -4.20718991978413      1.66925578500659      0.15736393486883
  H   -4.58292966645418     -0.52199667313171      1.62582601109757
  H   -1.67433449621185     -2.84366098172038      1.43739193133326
  H   -3.09159912508585     -2.51271367507083      2.27131831404572
  H   1.90677103535235     -4.08937684823256     -0.66547292098062
  H   3.31698404841700     -3.09456726623604     -0.68991355285128
