32
Coordinates from ORCA-job ./opt_b97-3c_parallel
  N   5.69583461913487      0.78978044995452      0.16470999890375
  C   4.61559564642885      0.38995820556646     -0.00328563057160
  C   3.29534596737836     -0.03931109137539     -0.16830129812039
  C   2.84335942266344     -1.19132052607711     -0.84766698924568
  C   1.47695251272224     -1.35318027278336     -0.67676300376845
  C   0.86300013626505     -2.51555662130843     -1.17175812788753
  C   -0.29624809218931     -3.18027386229831     -0.89515739374584
  C   -1.30246057987554     -2.84348241000904      0.05497475275798
  N   -1.90508346413552     -3.88253323555753      0.68396144339876
  N   -1.82566747972122     -1.67311558046672      0.33057652170924
  C   -1.58291375281992     -0.41643507878508      0.07598796137079
  C   -2.63706951843644      0.51471652127044      0.01928265211675
  C   -4.00219460469700      0.23529330500973      0.07389912915608
  N   -5.15340571927958      0.06684634453803      0.11645354944634
  C   -2.08927894548462      1.82043684175293     -0.02363845748038
  N   -2.79091589971279      2.94145126316850     -0.13468788982491
  C   -0.67094899649973      1.74181016061306      0.03530030367750
  C   0.09201866982910      2.87727622251115     -0.22445644502799
  N   0.65376126838967      3.88092255544431     -0.42009393767129
  C   -0.28726430356239      0.37025215697586      0.05724582637409
  C   0.99441211984048     -0.14187928904453      0.04038950868640
  C   2.17977251504159      0.60532092725875      0.39759086863015
  N   2.26559004842346      1.63875764140347      1.25960951331417
  H   3.48279332928381     -1.87516102280370     -1.38225070299262
  H   1.52089746581234     -3.06752856305479     -1.83537767267297
  H   -0.40404673428182     -4.16084634989451     -1.34097215577960
  H   -2.65198276006968     -3.68191766409657      1.32580873196267
  H   -1.46277813066213     -4.78115095345051      0.72660297842194
  H   -3.79018100252609      2.91283869478411     -0.24027930213948
  H   -2.33019081636300      3.83381052800108     -0.19054829187286
  H   3.11456194031300      2.17946668367702      1.25780912994593
  H   1.44383489739111      2.16015568067605      1.49887770022915
