28
Coordinates from ORCA-job ./opt_b97-3c_parallel
  N   4.55715618451294     -1.37551180632962      0.08989563558681
  C   3.39404197962078     -1.43623104769543      0.06251792398880
  C   1.99964278462164     -1.45077997035789      0.03071882492356
  C   1.16180360354799     -2.55841947950147      0.01988445067858
  N   -0.13559156351805     -2.23994307495189     -0.01532006997804
  C   -0.23608434100650     -0.87183570679332     -0.01770247544351
  C   -1.48295559967547     -0.28514429410031     -0.04023147980046
  C   -2.69798328669885     -1.06432233991881     -0.04900148785731
  N   -2.76732035821312     -2.40261630257262     -0.13298205563476
  C   -3.79657689872188     -0.18751732163145      0.01521088909554
  C   -3.33031771132896      1.11299197930944      0.05957930419658
  C   -1.92233550594470      1.14344095822292      0.02206282919811
  C   -1.28848390652140      2.36497506818761      0.02766226117565
  C   0.00872066004995      2.86896668689173     -0.01145911401606
  C   1.27709836848185      2.30788047690158     -0.06109839504509
  N   2.32062124631721      3.19544964408229     -0.16575606245311
  C   1.71516995528006      0.95330567216034     -0.03846474140276
  C   1.15083303694715     -0.28879058893378      0.00028816022031
  H   1.47526956255708     -3.59213428878943      0.03775496765828
  H   -3.63928601567684     -2.86747614050674      0.04124817729314
  H   -1.87962536929441     -2.89471587434877     -0.05240811612788
  H   -4.83123082299427     -0.49540775021226      0.02278186740820
  H   -3.94601660658144      1.99810523283486      0.10759111947296
  H   -2.01242920362678      3.17272031874916      0.07644264119774
  H   0.02657687510088      3.95364972048365     -0.01342741289971
  H   3.25042593709210      2.88140279530692      0.04528453919332
  H   2.14791343633654      4.16804885810971      0.01240206862888
  H   2.79866920413654      0.88883386650357     -0.05940711775777
