26
Coordinates from ORCA-job ./opt_b97-3c_parallel
  N   -4.07742313975798      3.28731065114303     -0.01841548062665
  C   -3.34038973792364      2.38966916671721     -0.01663859473514
  C   -2.42540029373223      1.29579629755007     -0.01447599030765
  C   -3.04255581226675      0.04658709856866     -0.01989205013928
  C   -2.62123378030977     -1.27590100815548     -0.02053312443882
  C   -1.40449843639117     -1.93525419416511     -0.01592326110166
  N   -1.42745860522497     -3.28948286052810     -0.01868848094132
  C   -0.13900456383983     -3.65389050976745     -0.01302096330820
  N   0.77258440545077     -2.67551449459623     -0.00659140977789
  C   0.04283629389587     -1.51760666298363     -0.00798029214578
  C   0.67796374434923     -0.29757365088741     -0.00253402825764
  C   2.10809965539390     -0.19488719189145      0.00454888290187
  N   2.97390295916935     -1.20373649650952      0.00704208721253
  C   2.45599486827973      1.18673973674787      0.00856700059734
  C   3.77958379837339      1.64704117690197      0.01559502280283
  N   4.89720371494084      1.96696501316068      0.02099104588284
  C   1.29358550096291      1.95112048012609      0.00432273881231
  C   0.16237621096724      1.11863465154551     -0.00253525239723
  C   -1.07282994680012      1.71403046038122     -0.00731444728347
  H   -4.12263418633801      0.12675146165965     -0.02487708538858
  H   -3.43739916759495     -1.98710551226323     -0.02589626758028
  H   0.15369892392628     -4.69425182136205     -0.01359361868252
  H   3.96411486678287     -1.03306322055653      0.01176384940400
  H   2.57810966060074     -2.14210439699672      0.00323197307664
  H   1.26283139515369      3.02789049515104      0.00605030952569
  H   -0.99365699076750      2.79475998340996     -0.00497957520397
