28
Coordinates from ORCA-job ./opt_b97-3c_parallel
  N   -3.64164737752016     -3.31416652149972     -0.15013011305484
  C   -2.82776403585609     -2.49351446803472     -0.01325137170134
  C   -1.87339582790907     -1.45925165831621      0.10763433839124
  C   -0.71620957465901     -1.80365752280813      0.83178934654347
  N   0.51256243079185     -1.39745480218349      0.73074558241580
  C   1.20961255016379     -0.41661103085627      0.22006807727503
  C   2.55512256235867     -0.54786762734745     -0.14218591246291
  C   3.34251796074515     -1.69671178050135     -0.15254270847620
  N   4.07023229340639     -2.60544060171505     -0.18940516659667
  C   3.06916059756326      0.77364565254506     -0.36044652501317
  N   4.32684347819031      1.01792401951957     -0.71728105001453
  C   2.04809001025863      1.72462010197992     -0.16182770232021
  C   0.86831145691218      1.05543602266236      0.11807212114893
  C   -0.40482803350028      1.61470162760835      0.22003834414699
  C   -0.62766360543367      2.99999117240441      0.43342922022206
  N   -1.91582834952701      3.32992957287661      0.37424447318578
  C   -2.57626579179901      2.19590117664705      0.03134790360863
  C   -1.73359197699667      1.08059289196530     -0.05636441246947
  C   -2.24629532332734     -0.19720095549935     -0.43689357080086
  N   -3.32297031170555     -0.18090359959559     -1.24089966459643
  H   -0.83685749814567     -2.65651627333114      1.49578715928201
  H   4.97777808386127      0.26154880627706     -0.84553026005672
  H   4.67684099094066      1.95538847245890     -0.79224995854427
  H   2.14783567698919      2.78012199493114     -0.35056846450511
  H   0.12667093011454      3.72980869080281      0.68693795595722
  H   -3.65405541876017      2.19996946546417     -0.04235979700696
  H   -3.65603050053316      0.68666965592466     -1.61685262729436
  H   -3.87138210142429     -1.00951241937865     -1.40091501946289
