32
Coordinates from ORCA-job ./opt_b97-3c_parallel
  N   -3.05709741059763      3.94334923507945      1.60031077620214
  C   -2.56572642855479      3.06434885852472      1.02051170288692
  C   -1.96291265489724      2.01467057670740      0.27841879988485
  C   -1.02951913573452      2.45607807850541     -0.76593852041349
  C   0.19032251728243      2.00013462849553     -1.05341300881171
  C   0.96366537721153      0.96033698364027     -0.40280986426740
  C   2.34345380194697      1.09090337339012     -0.23520176656021
  C   3.13351941315039      2.20248130450757     -0.54380268054317
  N   3.83573543348930      3.09939871332915     -0.78230045537440
  C   2.87167673853498     -0.12847568987955      0.31635816893860
  N   4.15900045335887     -0.31818909701744      0.65832698183465
  C   1.81724247399244     -1.04112863735080      0.41254326464915
  C   1.95485673952574     -2.25997447140892      1.07303028855894
  N   2.12592918338976     -3.28862436083470      1.59692050328756
  C   0.60301426425828     -0.38167979804658     -0.03836431308360
  C   -0.64027623561614     -0.98094481964251     -0.22945215470558
  C   -0.86825217420318     -2.41851041575112     -0.59968861655155
  N   0.06508970168267     -3.26883549113994     -0.99938137535754
  N   -2.15437221452812     -2.73070319083226     -0.65838137704265
  C   -2.80429185605529     -1.57990209442398     -0.33653918147656
  N   -4.13075043253518     -1.58261179279474     -0.22395583861929
  C   -1.94320102099663     -0.46183045476016     -0.11777519773000
  C   -2.40266486070929      0.75327146115855      0.48475771339306
  H   -1.37560870255998      3.31682725902295     -1.32790279657154
  H   0.72798075645472      2.53278639812160     -1.83114829771873
  H   4.76340127549935      0.47883944975558      0.75413557642833
  H   4.40924451730856     -1.13673668499105      1.18545079785080
  H   1.04063294235990     -3.08818895032910     -0.84584235495838
  H   -0.21161030198417     -4.21159988840030     -1.21491925307957
  H   -4.64956628210201     -0.73032411904348     -0.12158724930290
  H   -4.63337259596814     -2.43674530718430     -0.38806570413045
  H   -3.21344810890355      0.64447085879261      1.20157401858379
