29
Coordinates from ORCA-job ./opt_b97-3c_parallel
  N   5.78268197935842      1.43431031239713      0.64374665652810
  C   4.66392081721647      1.17569639076685      0.46392925285499
  C   3.34856091972449      0.75832410252894      0.21521748447437
  C   2.18736036977254      1.46572769379075      0.31468274977094
  C   1.07736855715791      0.59122667290703      0.00285751776883
  C   -0.19935107977895      1.09230543832796     -0.07372489519193
  N   -0.36526435456040      2.47812522508012     -0.07500637867805
  C   -1.64700023973322      2.69426996700701     -0.19150756521223
  C   -2.42362679720914      1.47792508566849     -0.22985428905164
  C   -3.81513343115487      1.42741314074011     -0.36878037753734
  N   -4.96779152133957      1.44209518958883     -0.52078428974921
  C   -1.51943060665584      0.42643687658599     -0.14259579854775
  C   -1.87318666406265     -0.92207084222932      0.16942457539538
  C   -3.06892304311386     -1.12700054888867      0.89219583063791
  N   -4.00665826061638     -1.38741324932207      1.53062123481094
  C   -1.14152618660354     -2.08924642759582     -0.09152851293042
  N   -1.48085924597507     -3.24618750089782      0.51764194187621
  N   -0.16172548475797     -2.26511335270707     -1.01894838585464
  C   1.01127519075844     -1.75212253642872     -1.07942306061908
  C   1.62854614505004     -0.70704302164725     -0.33419350945250
  C   3.01708523964274     -0.59151656249347     -0.23519768235039
  N   3.95373788948577     -1.50325391931017     -0.52523565923756
  H   2.07425242269284      2.49529697190304      0.60111794794817
  H   -2.05291356576744      3.69302823527549     -0.26653257857757
  H   -2.30874812076520     -3.28586325889307      1.08920002967584
  H   -1.17141679187878     -4.10064016165650      0.09056311295761
  H   1.63551932957083     -2.18481823900360     -1.86482110098183
  H   3.71727049348135     -2.46418893314655     -0.68679141531663
  H   4.92743834766092     -1.28641513894988     -0.40186800621330
