31
Coordinates from ORCA-job ./opt_b97-3c_parallel
  N   -5.09038557872177     -0.18514299471191      0.75636745378079
  C   -3.95425159442229     -0.15169237231434      0.50829597531265
  C   -2.59431318718311     -0.00285377058787      0.20813684233544
  C   -1.62742839312685     -0.98081497707943      0.10644312132581
  C   -0.35813029393753     -0.36243924547720     -0.07050818192528
  C   0.80978338890391     -1.12106463955574     -0.05508021076942
  C   0.88872849548987     -2.53018043768983     -0.20524488111962
  C   -0.04622343856695     -3.41231932268103     -0.75381687145891
  N   -0.80395327282740     -4.17270322265396     -1.20463692937350
  C   2.15078967996336     -2.90778053410572      0.29558845638952
  N   2.87192714136033     -1.88786820788393      0.75026971775230
  C   2.14684146328336     -0.75285759164489      0.49636755276146
  C   2.74546262053677      0.43980925117903      0.82330031522610
  C   2.59369480169367      1.75640132632152      0.34914488292357
  N   3.63807293941371      2.57816215581448      0.67713308813634
  C   1.61964272120481      2.33874107059776     -0.47512674164843
  C   0.26388120978613      2.11392972181557     -0.66323227329628
  N   -0.37873156236173      3.08115643863237     -1.39459290214693
  C   -0.59377694086220      1.08737079609695     -0.15040741445240
  C   -1.97014340376124      1.28079524493826      0.02619636425594
  N   -2.70064081855792      2.44013673020090     -0.00267770582476
  H   -1.79600103315064     -2.03088029071947      0.25544848058879
  H   2.54401388515916     -3.91440752376201      0.30432660534539
  H   3.65110872547606      0.27495834713924      1.39596542384223
  H   4.51566836396231      2.17769902405075      0.95510013079492
  H   3.68162490511753      3.50415343893213      0.29392277366980
  H   1.97533152858437      3.23745099244037     -0.97007062382738
  H   0.17667487913001      3.76961352578502     -1.86949545852301
  H   -1.24351995009045      2.84085599859626     -1.84625787907170
  H   -3.63207270792881      2.36983284613088      0.37554749382047
  H   -2.22262004796682      3.28446274579536      0.26153037267580
