29
Coordinates from ORCA-job ./opt_b97-3c_parallel
  N   4.57047087300151     -1.88396651701097      0.19477238350989
  C   3.48822698404784     -1.47356994041039      0.07605397896011
  C   2.21795458604049     -0.89878090165056     -0.06834489814019
  C   0.99956017098156     -1.54975477619270     -0.18552248115109
  C   -0.04333534184462     -0.59018526860005     -0.18009881215711
  C   -1.37559280998176     -1.01536071410095     -0.23948403625048
  C   -1.75243252231805     -2.31070578573793     -0.61562129868521
  C   -3.08613519416686     -2.52534448558637     -0.25743822953843
  C   -3.59898232789041     -1.38572435755828      0.36132395674737
  C   -2.61950950137254     -0.38146234278415      0.34286566303311
  C   -2.90812539821067      0.90169120566796      0.76493652310369
  C   -2.31487735941097      2.14489775254501      0.56407651225564
  C   -1.15052732283150      2.60892396611986     -0.01078948587193
  C   0.08281535654299      2.04354508835645     -0.37756557614372
  N   0.91935772551645      2.89724963001300     -1.03094579441464
  C   0.60796193796633      0.74070239524902     -0.10847620044484
  C   1.98560706413427      0.50716636175468     -0.03560395307305
  N   3.00992090853647      1.46273942913234      0.03951063950117
  H   0.86527249525937     -2.61452455736966     -0.14046626002351
  H   -1.11333106245676     -3.02966710027889     -1.09883967803907
  H   -3.63850465452695     -3.43470800901967     -0.44536370100074
  H   -4.61000380152942     -1.24572186750708      0.70940910065756
  H   -3.88289808910311      0.97443460630095      1.23645646550934
  H   -2.96760696207812      2.95827811080765      0.86343479960656
  H   -1.17714077829557      3.68115834218163     -0.18204912583553
  H   0.70506069403427      3.87837259007952     -1.03936968527753
  H   1.89567748411045      2.64611956676925     -1.12187184018697
  H   3.92443475887219      1.03356606725470      0.05462282744622
  H   2.92326543857577      2.07179955167561      0.84159009940413
