30
Coordinates from ORCA-job ./opt_b97-3c_parallel
  N   4.84767974385057     -0.92592761778241      0.06008098737822
  C   3.77527922509871     -0.47116706757731      0.09231848308905
  C   2.53954074384974      0.17099406429603      0.14802447169557
  C   2.38733824830181      1.60601329460018      0.30158224521406
  N   3.42520724766727      2.40463652867894      0.60699812968669
  C   1.05362763414572      1.94607333182531      0.15909755090853
  C   0.29648663260254      0.75013382757018      0.00177003258924
  C   -1.07438194019745      0.65510899252062     -0.10320049251232
  C   -1.95700156511962      1.78139519190052     -0.41282333405397
  N   -1.56212532468868      2.99259204004958     -0.85805759243086
  N   -3.24359882016459      1.49183196149763     -0.26566718025362
  C   -3.27357973216756      0.20145051591891      0.17740386712090
  N   -4.46303293608880     -0.34203617636607      0.52463823042175
  C   -2.00379260670666     -0.40383308057647      0.24681706010056
  C   -1.76530693974914     -1.62213095806418      0.92548175094318
  N   -0.79318908820744     -2.46702004393271      0.81877438511449
  C   0.10673476404243     -2.43765166352150     -0.22471798925231
  N   -0.03264685611953     -3.50125800125881     -1.05795584511346
  N   1.10882869018290     -1.64267569855966     -0.45216138523146
  C   1.28238322577688     -0.38581131215655     -0.03407577839266
  H   3.32909668845618      3.40171942747718      0.56255100765438
  H   4.35898974384480      2.03385224741308      0.58486386155265
  H   0.64641985679478      2.91008349671078      0.41458897417131
  H   -2.28059434568234      3.55828440056818     -1.27810650855649
  H   -0.64181014037752      3.06481170462683     -1.25885927358379
  H   -4.57161204804426     -1.33828682318095      0.48944630359944
  H   -5.27792575001828      0.19602842865438      0.28711317151610
  H   -2.50855291854350     -1.89246883642736      1.67982306447672
  H   -0.53970291499571     -4.29371761592693     -0.70745366804734
  H   0.73546019825694     -3.68568475547184     -1.67980483080796
