34
Coordinates from ORCA-job ./opt_b97-3c_parallel
  N   -0.16118762781659      5.18473550659867     -0.84052276049140
  C   -0.21826232671858      4.04888693932961     -0.58779390349317
  C   -0.33077375091786      2.67497907962779     -0.26663825555333
  C   0.90590056892950      2.03588371883946     -0.13114931443018
  C   1.40005435877094      0.76479743880694      0.05015839426662
  C   2.81245679078893      0.60344472641070      0.18663611402450
  N   3.72926296782042      1.57800462403196      0.35167183696301
  C   3.15294706339050     -0.76026859180322      0.06270003844475
  C   4.43748788449276     -1.29425383848826      0.15886414947512
  N   5.51153936377146     -1.73778042112211      0.24204231518577
  C   1.96956423050364     -1.49934097434528     -0.13125483310708
  N   1.90990745391160     -2.81534352766098     -0.29196242312784
  C   0.83605137646062     -0.59413826444664     -0.09352767953766
  C   -0.45286177506644     -1.06286468632030     -0.13498661623774
  N   -0.68920759746836     -2.41198308200187     -0.29609925979532
  C   -1.98767314450119     -2.61720743873392     -0.08936054399804
  N   -2.54013815435558     -3.83344743569114     -0.14923279885941
  C   -2.68914546667946     -1.41303645998191      0.20746345134037
  C   -4.06180110360011     -1.31900632170114      0.40946211783292
  N   -5.21512382423351     -1.26894315592949      0.57553125626088
  C   -1.75138489969655     -0.36004937127057      0.12922078365671
  C   -2.16658022857395      0.94806871843141      0.28625455699174
  C   -1.66124911946514      2.22875916280627      0.01810160681830
  N   -2.59897434736472      3.20692133188047      0.06627061466890
  H   1.70253608281643      2.76469412214117     -0.23454535300737
  H   4.68483084497103      1.30927220096542      0.50959538811969
  H   3.46011786710747      2.45470530424174      0.75781515337856
  H   0.97477357567692     -3.21547911479369     -0.35685487748413
  H   2.74103464788616     -3.37682535219180     -0.22815429747659
  H   -3.53651878674754     -3.93985840194355     -0.08834888166416
  H   -1.99891422259868     -4.60488142835710     -0.49416211277945
  H   -3.21591880541884      0.98877349998924      0.55916871249952
  H   -2.36611821508487      4.16544494673156     -0.12652789101861
  H   -3.56985533629018      2.97420812905040      0.15760701813489
