24
Coordinates from ORCA-job ./opt_b97-3c_parallel
  N   0.92610143205995      3.22410876565927      0.95497795180088
  C   0.84783755102360      2.15350330343314      0.12958616328611
  N   -0.23921307658279      2.19863205381244     -0.70062956016702
  C   -1.21658402392939      1.35533979571221     -0.71861828052568
  C   -1.43814914460838      0.12620789608947     -0.05604550455665
  C   -2.71871474208413     -0.43384044426074      0.05516144742576
  N   -3.90984013419745      0.18479017855386     -0.14429608382210
  C   -2.60763481525313     -1.80136133616620      0.48998188268933
  C   -1.28969182897717     -2.11274274337598      0.58702835041601
  C   -0.49616519484015     -0.94713740897765      0.27416730734248
  C   0.86492582181253     -1.03052800957916      0.14955630303367
  N   1.51815054119539     -2.23991769553519      0.12889312218945
  C   2.76293221498823     -1.91419939992604     -0.17712848927914
  N   3.07341330887839     -0.58934802413957     -0.30878379393570
  C   1.92051032569187      0.03246163151426     -0.08262311310409
  N   1.86673324364135      1.33840418790867      0.13264398774518
  H   0.34598107186850      4.01819828604636      0.75259238316035
  H   1.80921350436535      3.38962320047144      1.40528621414389
  H   -2.02693665316706      1.66534346605023     -1.38461548039134
  H   -3.92502704254281      1.10158122559873     -0.55507487274477
  H   -4.71085510888937     -0.38475891738461     -0.35208995192206
  H   -3.44472165248495     -2.45126001677999      0.69679376727826
  H   -0.85386003655046     -3.05916788936169      0.85524439829304
  H   3.52383757718135     -2.66955156826410     -0.32010509485547
