25
Coordinates from ORCA-job ./opt_b97-3c_parallel
  N   0.87734343047023      3.28090297913892     -0.96756413436900
  C   0.87167599072342      2.14969192810372     -0.19736825009207
  N   -0.13892824525383      2.19046873565581      0.74787920626597
  C   -1.11538689082169      1.36178757657349      0.81814559279920
  C   -1.37988255179571      0.14673495654714      0.11940678652920
  C   -2.65344612889927     -0.41073177005607      0.00566313730601
  N   -3.85667951111845      0.15202168126438      0.21665506761259
  N   -2.63050275798485     -1.73999201420962     -0.42294820687320
  C   -1.36837719611238     -2.05545423688355     -0.50176803127852
  C   -0.47738962501125     -0.94194531566313     -0.19631766975403
  C   0.88023004432363     -1.07384552165730     -0.10442831543301
  C   1.57766294613107     -2.32676542415938      0.00626942662231
  C   2.88947402966065     -2.05095461155659      0.26098545726459
  C   3.12033037696976     -0.62941317215576      0.22604468857170
  C   1.93477021017454      0.01096585489428     -0.00073025412990
  N   1.83766117512483      1.30994869207492     -0.37134066328578
  H   0.42858462224294      4.08945138034977     -0.57367668100431
  H   1.73327662442021      3.44863632365705     -1.46883292212069
  H   -1.86735665530672      1.63292384414051      1.56583827542543
  H   -3.93481903245131      1.07123265383073      0.60988313673620
  H   -4.65168407514049     -0.45765907583947      0.28733433417110
  H   -1.05571292259641     -3.03769490811892     -0.82257615238561
  H   1.11415107477138     -3.29810719511321      0.03851366273183
  H   3.65108298723565     -2.78812923996941      0.47082948316555
  H   4.08075037284353     -0.14392292164817      0.28250234862458
