25
Coordinates from ORCA-job ./opt_b97-3c_parallel
  N   -3.39859158344645     -1.12188512189038     -1.98292476269164
  C   -2.49817147001007     -1.26163523784405     -1.25177999351031
  C   -1.40439925313547     -1.41177347650045     -0.40946762500706
  C   -1.07673457967109     -2.62276925337824      0.27928541868456
  N   0.09590235059461     -2.63348410052802      0.87583473709959
  C   0.69530788860620     -1.44375172055424      0.50462803679857
  N   1.96542531978388     -1.31233089419760      0.58340113980419
  C   2.74234683818149     -0.43013227771649     -0.10267168273793
  N   3.43125072689497     -0.98010123510865     -1.11571426575846
  N   3.01128373933235      0.81630850048724      0.21784463624971
  C   2.11715248452639      1.67381901388514      0.67576505686413
  C   0.74098966794501      1.73400119857653      0.54034975588746
  C   0.09136749885386      2.95677027138994      0.81129658042317
  N   -1.18694828659504      2.98274379743783      0.46176530725684
  C   -1.46869599047779      1.75308240014312     -0.04601371364570
  N   -2.73347760409056      1.49343568416964     -0.36063936372449
  C   -0.31206365052208      0.86499396376401     -0.02483520336163
  C   -0.34542548618243     -0.51369779967309     -0.12357171989378
  H   -1.71885535210049     -3.49318568337502      0.30749659741147
  H   3.46381690105223     -1.97983452794924     -1.20360078105265
  H   4.14779558052489     -0.43169127203368     -1.55712957975839
  H   2.55877625622384      2.55183149875944      1.14015496777754
  H   0.56796644001017      3.83738837875489      1.22000348574414
  H   -3.38486977058660      2.25028059372140     -0.23884882544612
  H   -3.03116828951177      0.70144618445968     -0.90842919761336
