23
Coordinates from ORCA-job ./opt_b97-3c_parallel
  N   3.77747587966000      0.18949938537151      0.16657130851101
  C   2.54533734451933     -0.30634108660158     -0.02017218733061
  N   2.43643213853153     -1.68338797370518     -0.27659340328687
  C   1.16099289747166     -1.92519148406398     -0.30019108790337
  C   0.34267284204986     -0.71996132397464     -0.13210679188600
  C   -1.01963094082950     -0.75135466491456     -0.04974923813514
  C   -1.79297181911200     -1.95676422836051      0.19701308892251
  C   -3.08329620037271     -1.58923429583292      0.39226822555495
  C   -3.22230557200310     -0.16235606701961      0.16934438333032
  C   -1.99886026529090      0.37872698735705     -0.09410596109048
  N   -1.82862006477178      1.63948542016231     -0.60616852625455
  C   -0.84917661495232      2.44537401561656     -0.43823291803359
  N   0.18548005697508      2.48976963386533      0.46106565302573
  C   1.12014329966358      1.63099092437528      0.62380937817329
  C   1.31221945275604      0.33686847925937      0.03782824175467
  H   3.94821758860269      1.17684031171729      0.13654923185878
  H   4.55755390659904     -0.42567277098563      0.02015392985293
  H   0.78236418404453     -2.91712543636128     -0.49640382387270
  H   -1.38303869980657     -2.94490554318778      0.31887722538812
  H   -3.89347469240653     -2.24864223091625      0.66507622980010
  H   -4.15169296367828      0.38353459662878      0.14685152798292
  H   -0.89671463400753      3.36299061553254     -1.02426923064719
  H   1.88256282395800      1.92150520873790      1.35183707998516
