32
Coordinates from ORCA-job ./opt_b97-3c_parallel
  N   -5.40469348895511     -2.02450385539108     -1.12045507257397
  C   -4.36984860692700     -1.59670726152481     -0.80489356626401
  C   -3.16549812720012     -1.00523092289755     -0.40471196128718
  C   -1.91001846421573     -1.56510431793646     -0.36296892420010
  C   -0.96557844637769     -0.56129728046402      0.02383511425117
  C   0.38291706479522     -0.86517127549930      0.18921257510018
  C   0.86105520990477     -2.17268974680720      0.43001933304812
  C   2.23827412665469     -2.13619191225920      0.51094599193047
  N   3.09910977336976     -3.11700218111777      0.80891759546748
  C   2.68162301811861     -0.76653449820210      0.25447974766716
  C   4.03936524477110     -0.43511632749986      0.25515428265043
  N   5.19203510071141     -0.29139715683226      0.32655005959487
  C   1.57224468388130      0.03017422911285      0.06054064463613
  C   1.62969619359826      1.36030083221152     -0.47989377905703
  C   2.71822809536769      1.65765126867291     -1.34211145913407
  N   3.57782860276502      1.91120490945035     -2.08141783966868
  C   0.77304103273696      2.41799538283318     -0.25323133677731
  N   -0.20989033534531      2.56643589279784      0.62512062026593
  C   -1.24297374786791      1.85155053957220      0.92746930284368
  N   -2.05481243546196      2.35336174613250      1.91324586519461
  C   -1.71662503344339      0.65801961945078      0.26405952981865
  C   -3.06083691104958      0.37438316016490      0.03559955742460
  N   -4.15143640005408      1.15891744404362      0.23403079619017
  H   -1.66039380086109     -2.56214650111980     -0.68024629335458
  H   0.24540935768724     -3.02841878603339      0.64735378939914
  H   2.79222229139904     -4.06606083052698      0.91145669209914
  H   4.08925141284282     -2.94295945294786      0.80921066945168
  H   1.02696555944693      3.33454494385918     -0.77833043176535
  H   -2.60348429166905      1.69808689406294      2.44271158806735
  H   -1.67844843709469      3.13182693608497      2.42933706190437
  H   -4.01228177013627      2.14976881837282      0.32742104474084
  H   -5.01051789109144      0.88147965703656     -0.20998951236255
