29
Coordinates from ORCA-job ./opt_b97-3c_parallel
  N   4.04115455758189     -1.69888938311533     -0.60099288773186
  C   2.96549959216336     -1.36127111582653     -0.31146633413319
  C   1.61478490661084     -1.08170369461708     -0.00363438346883
  C   0.74068224852067     -2.20826596584044     -0.04825639946384
  N   1.19074628482185     -3.31115531524413     -0.68525308087220
  N   -0.41112008915440     -2.39218951088569      0.58945913535787
  C   -1.55675673171218     -1.77735528263285      0.63151952532069
  N   -2.52888018277727     -2.42330941129252      1.34325118324242
  C   -1.96158521958375     -0.56817982065943     -0.01407511385489
  C   -3.27391805901082     -0.26703174260487     -0.36635589175883
  N   -3.47069674167097      1.02730965672073     -0.72480423208767
  C   -2.28966666777180      1.62524212084106     -0.54809439457622
  N   -2.08828179260836      2.92264424647144     -0.78605920331866
  C   -1.24561508417628      0.68386685069555     -0.12420318572337
  C   0.04825444548184      1.06467394079849      0.13976971840430
  N   0.40586089841485      2.38292579427929      0.21348395438365
  C   1.72944292865080      2.35818453388394      0.40425044227390
  N   2.46123045077261      3.46043644205089      0.59044365294737
  N   2.32261395018255      1.13098960317708      0.43235805969670
  C   1.31965039305412      0.27012829778478      0.26666410825122
  H   0.70404694257939     -4.17267299883523     -0.51781348975876
  H   2.13610964897875     -3.35686519461033     -1.02656943359445
  H   -3.25294308204913     -1.87105594162754      1.76450593597055
  H   -2.24123185173150     -3.24776457734315      1.84202521908523
  H   -4.09928616949671     -0.96409909255479     -0.39362045165543
  H   -1.20366231978533      3.31529139975628     -0.48697822815887
  H   -2.87533956072057      3.49591087754664     -1.03172483740065
  H   3.45955124390810      3.37668632853590      0.63683257391751
  H   2.04537893372929      4.36561014825028      0.48033058350432
