30
Coordinates from ORCA-job ./opt_b97-3c_parallel
  N   5.43563765121029      0.91986603327031     -1.20855166446059
  C   4.33342492668241      0.78542237402187     -0.86586166319420
  C   3.00109438966300      0.65364641763359     -0.44170368822857
  C   2.25543101149276      1.67967876106952      0.22448136600441
  C   0.96784692053724      1.22903257106165      0.40475404017826
  C   -0.03877765218410      1.98112650025072      1.09799746342699
  N   0.36073768823293      2.68516807358291      2.17744680939770
  N   -1.26114857012180      2.18208628278648      0.69183889734081
  C   -2.08189126629358      1.61549810586593     -0.16064082803445
  N   -2.80095902142587      2.45286936745067     -0.93366828993978
  C   -2.41238703814659      0.21046922855657     -0.21432984619433
  C   -3.74216390112976     -0.04537689382848     -0.62207222516289
  N   -4.83819680278309     -0.20554047519600     -0.97826425221453
  C   -1.63429236138650     -0.90177127927164      0.11076259069662
  C   -2.19627609745434     -2.18299660926138      0.23243096175860
  C   -1.18333170397527     -3.11981726849220      0.26671093790866
  C   0.07545144933839     -2.48465450436088      0.13898634481535
  C   1.29025160249533     -3.17623185033852      0.22724149399185
  N   2.27392959627070     -3.79304491864586      0.30075340115500
  C   -0.12366206003232     -1.08875112136001      0.06729512307017
  C   0.89359529464190     -0.14931574078193     -0.09486930899725
  C   2.18717322214950     -0.45591259196877     -0.59984006720579
  H   2.63819973875603      2.65093920688480      0.49154227935370
  H   1.21625859590199      2.44336867161628      2.64026282887988
  H   -0.30316952901035      3.26417967444225      2.66079251413705
  H   -2.73659083293988      3.43845212466793     -0.75134849713335
  H   -3.59611756380803      2.12208843124319     -1.45253602559430
  H   -3.25176555583062     -2.39046640315960      0.27343821548516
  H   -1.30888852884052     -4.18364134062099      0.39580687414279
  H   2.47745573279023     -1.37874725051857     -1.06634630368284
