30
Coordinates from ORCA-job ./opt_b97-3c_parallel
  N   3.95122397527710     -0.60079762891524      1.76261256881618
  C   3.01372776616013     -0.41818688155879      1.09923446180530
  C   1.81602014336986     -0.33143583497591      0.34965579254477
  C   1.64654770486222      0.87176264594786     -0.41613858382050
  N   2.70450836358483      1.56456844641697     -0.78111478158573
  C   2.25210819014387      2.79229211893419     -1.23651943028299
  C   0.90815765424373      2.96053272470790     -1.05692371442603
  C   0.42082306709225      1.72451294175855     -0.54273149157775
  C   -0.83893865626825      1.48740018520066     -0.04719818786441
  C   -1.70744115360271      2.55158357018293      0.44448811925792
  N   -2.81454962128906      2.10258038804341      0.96587216216773
  C   -2.78068316162435      0.71926942491000      0.77202182977729
  N   -3.86065535540923      0.02008559718897      1.14164832279834
  C   -1.57952576339066      0.28481928135876      0.18915147375747
  C   -1.37137298258605     -1.00958416877604     -0.40362635898159
  N   -2.50698099709096     -1.59469889349395     -0.91479861061409
  C   -0.18135183065846     -1.70696481273038     -0.45005781954202
  C   -0.17749408246360     -2.92508073364808     -1.16057097619081
  N   -0.22055120190307     -3.93566774297077     -1.73912095734445
  C   1.02209633016274     -1.46960387155458      0.36127304625270
  N   1.40740998200921     -2.54135586008760      1.08768633038651
  H   2.95043450012870      3.47794895245523     -1.69197277847182
  H   0.31047391615413      3.80755508428662     -1.34912057388230
  H   -1.44689665970432      3.59883263156979      0.48222938683790
  H   -4.58719023317107      0.49832440523387      1.64360882266446
  H   -3.85941239644343     -0.98338129062983      1.11125649394897
  H   -2.38991173981774     -2.46019488584188     -1.41899464816499
  H   -3.17303400328231     -0.96876838176987     -1.33598020925914
  H   0.92629436481763     -3.41526310652520      0.97907527144061
  H   2.32597595499948     -2.56983661081778      1.50095156945305
