27
Coordinates from ORCA-job ./opt_b97-3c_parallel
  N   -4.75009842802983     -1.12751680319691      0.11538589344506
  C   -3.67734557188860     -0.67611306341336      0.07966356974351
  C   -2.44699920060338     -0.02225122262709      0.04493038152707
  C   -2.28006588542723      1.41158559754322      0.04638898910619
  N   -3.28639550854820      2.28378126542902      0.13871793604464
  N   -1.01558033046795      1.78135062865389     -0.06061981535043
  C   -0.25895151409715      0.63762425113507     -0.10279739765225
  C   1.11298631077378      0.74130317908284     -0.08037202655882
  C   1.73647595053639      2.02404620006733     -0.11102561480234
  C   3.09665516640970      1.87996207949781     -0.06112161034076
  C   3.40805488521939      0.49539118448050      0.02655057812195
  N   4.68325297486889      0.01723797432206      0.14356678287015
  C   2.20913063774844     -0.25304392563562      0.03465961820500
  C   2.23138246545787     -1.62620156051828      0.24239572174455
  C   1.31244053085894     -2.65328602670936      0.18216577652151
  C   -0.04420926979511     -2.72232557934021     -0.17293715938253
  N   -1.04233062851540     -1.88451720110518     -0.25347469298134
  C   -1.17492133332316     -0.57126467470601     -0.09313101350477
  H   -4.23867706528125      1.97083607169533      0.18698164174551
  H   -3.09482228408633      3.26727971274687      0.07646057812837
  H   1.18648341023545      2.94536439675137     -0.18281897191699
  H   3.82537017910898      2.67672020905542     -0.08974832555169
  H   5.41943319938198      0.65758002840045     -0.09633869359495
  H   4.86274966362105     -0.91815641913207     -0.17636353268215
  H   3.22440701547298     -1.99889446596799      0.47744414053761
  H   1.74426795058204     -3.63630375451458      0.32820052341330
  H   -0.35755825221329     -3.74112999699397     -0.40163837093616
