32
Coordinates from ORCA-job ./opt_b97-3c_parallel
  N   -6.00683401767195     -0.48243568056742      0.14791123797364
  C   -4.87315579282296     -0.23862676003015      0.08646930860299
  C   -3.50169488193117      0.06470527290474      0.01398377689260
  C   -2.95448566559861      1.33943166448145     -0.15858680357108
  C   -1.54965465597344      1.25050131315381     -0.10995290157962
  C   -0.83953894446775      2.43688335381293     -0.21445468082945
  C   0.46453968863960      2.88636247679124     -0.04535411165808
  C   0.60524409955880      4.28539210876225     -0.25347861339540
  N   0.76589311037403      5.42618225117493     -0.40820265676357
  C   1.65592751876825      2.23342524492094      0.39476407351233
  N   2.69866672466538      3.04625173264517      0.68918874999388
  C   1.94874846878556      0.86463608827291      0.54852771164012
  C   1.38030198503095     -0.36182549760477      0.29684494502099
  C   2.22978009981498     -1.50984273287270      0.34931919184032
  C   3.60003065962177     -1.51995894607369      0.60337712264331
  N   4.74487510326124     -1.54758415602449      0.81894221972409
  C   1.48450582537787     -2.64572462821844      0.00219279292952
  N   1.93828925051981     -3.88780685140950     -0.12416325488850
  C   0.12946492833070     -2.24535563382272     -0.22581340329543
  C   -0.81032850489940     -3.19292883863251     -0.63462220264886
  N   -1.48763249813206     -4.07561756860342     -0.97936124940213
  C   0.00557621835713     -0.86223276667273     -0.00933661101411
  C   -1.22204628648005     -0.18404473048865      0.03636027655137
  C   -2.44864331005688     -0.85931054593276      0.11802576087425
  H   -3.51453340558595      2.25290152681271     -0.27248521272221
  H   -1.50130848123142      3.26147960068689     -0.45291246672439
  H   3.59937554823034      2.66352589993403      0.90844590531107
  H   2.63710540576207      4.04306616553756      0.57510101239207
  H   2.98019676036477      0.73744205441868      0.86073000408168
  H   1.32417333799211     -4.63364371656474     -0.40387227255220
  H   2.90718101908830     -4.10282072474333      0.03347749014760
  H   -2.58930944869185     -1.91416115744881      0.26355171221250
