30
Coordinates from ORCA-job ./opt_b97-3c_parallel
  N   -3.56404588381938     -2.42485165568819      1.26395002546525
  C   -2.55166078449088     -2.04470229787818      0.83518187375428
  C   -1.32789577836303     -1.56499851527637      0.30159883184501
  C   -0.32493601207531     -2.51999468127903      0.23103954062924
  N   0.82597421264762     -2.54649141945437     -0.41007832767993
  C   1.76473049182370     -1.67119768090121     -0.64456659219025
  N   2.75907767722396     -2.10546999113607     -1.48079830870136
  C   1.99113947890173     -0.40692965978793     -0.01031352119615
  C   3.25850052905214      0.05717774983433      0.29763604771511
  C   3.19458421859060      1.38919074556292      0.76761364193937
  C   1.88595413680628      1.81520461222838      0.68649006014989
  N   1.41337315110593      3.05848091254731      1.05120746850774
  C   1.06242285141586      0.71090834890477      0.19315982740147
  C   -0.27031210466092      0.84431120498466     -0.13792691688405
  C   -0.90701616598145      2.08014505911974     -0.41939866126045
  C   -2.24843601197629      1.83555305716319     -0.66793597492660
  N   -3.19072496951323      2.72784397711744     -1.03451040552401
  C   -2.52191059733747      0.43728627789300     -0.46508992760229
  C   -1.35603520074923     -0.21167826792199     -0.17758578814115
  H   -0.58726786011636     -3.47674701010723      0.67553132150118
  H   2.59804473136065     -2.98845673820723     -1.93513671251732
  H   3.27509020810293     -1.41669352863345     -1.99616742158408
  H   4.16034366794411     -0.52960668534764      0.21451666825112
  H   4.02461450196978      1.96606401894088      1.14594637220423
  H   1.99489965620022      3.53308426224234      1.72336944396546
  H   0.44049426382050      3.07482632385933      1.31868353740085
  H   -0.39450148566736      3.00432319899890     -0.62595430391319
  H   -4.07270532289211      2.40202495757278     -1.38517867601957
  H   -2.92217911157793      3.65668876818091     -1.30419693405962
  H   -3.50273712914508     -0.01064892183213     -0.47969456523003
