30
Coordinates from ORCA-job ./opt_b97-3c_parallel
  N   4.63953018754413      1.50477859471584      0.08962068930074
  C   3.63566100946746      0.90999892970142      0.10057487711157
  C   2.47066334035939      0.15022424636048      0.12976645767200
  C   2.43808887154315     -1.24264311286205      0.40440482731647
  N   3.51674052268308     -1.97371703619542      0.72012959086018
  C   1.11715453075147     -1.70468983743624      0.29524106396764
  C   0.26570626596326     -0.63404202464469      0.00772864600498
  C   -1.12114938355818     -0.75262577514304     -0.15766742310951
  C   -1.78947394924177     -2.00355980462488     -0.34293400839253
  N   -1.19348411616737     -3.22177349525219     -0.63624935956952
  C   -3.16058623534600     -1.82399757430995     -0.14819482495666
  C   -3.39446378204769     -0.49075580431136      0.19181803351717
  C   -2.18883577270783      0.21901038604422      0.14822273340738
  C   -2.14462409478235      1.61402279075955      0.33749225721181
  N   -3.01586641361416      2.17261710828182      1.21565775228812
  N   -1.47400136383639      2.51122008253587     -0.38411518086395
  C   -0.27369901157887      2.57483528388283     -0.87259504875564
  C   0.89978987253111      1.84480609039346     -0.62963197230786
  C   1.14873789681779      0.58624137075180     -0.12830027725429
  H   4.40190486880796     -1.52538735489976      0.87852332647798
  H   3.42435525481394     -2.93126115481918      1.00192364008161
  H   0.79889168735188     -2.70023974669985      0.55140247519868
  H   -1.83312488605107     -3.87673809806112     -1.05834921042338
  H   -0.35233708375271     -3.13992695847095     -1.18861526456727
  H   -3.91331257143754     -2.59023842536077     -0.26040550683450
  H   -4.36861051763503     -0.04987012573444      0.33639259541588
  H   -3.60510142716610      1.58902557322385      1.77806185748466
  H   -3.25378758572624      3.14253591904255      1.10545591942743
  H   -0.12784254611046      3.43294919817155     -1.52623416410296
  H   1.79217838562532      2.39356250706091     -0.91148282040636
