29
Coordinates from ORCA-job ./opt_b97-3c_parallel
  N   -3.59959575968133     -3.31981593367875     -0.24745253629956
  C   -2.79839369412542     -2.49265901641026     -0.07744913030788
  C   -1.85768232987061     -1.45160513433487      0.08943082327363
  C   -0.70864385857954     -1.82240259969722      0.81765635081434
  N   0.52246929663037     -1.41617029967894      0.75898419639152
  C   1.19623614618610     -0.41708879481706      0.23281498327230
  C   2.54485176923299     -0.53876671687875     -0.11562758253940
  C   3.34312872782492     -1.68026738429863     -0.09832719240486
  N   4.08323325370589     -2.57970001494102     -0.11357425464901
  C   3.04866983816500      0.78171392931867     -0.37427960830842
  N   4.30456379609076      1.02131035739878     -0.75277226817945
  C   2.02374251305300      1.72129270706659     -0.18844016366544
  C   0.84463175504682      1.04607793676422      0.11393429428628
  C   -0.41310096705812      1.63017405253755      0.25703946044430
  C   -0.56965818026614      3.02280425638805      0.48301023545871
  C   -1.90891396118604      3.34801229990597      0.41775937745314
  C   -2.63249551298568      2.18934060281982      0.07592679937857
  C   -1.75933249505502      1.09832425539764     -0.00364512827631
  C   -2.24511708773542     -0.18083150627945     -0.41963985345430
  N   -3.32506027139165     -0.16191372490453     -1.22470875458985
  H   -0.84288525088805     -2.70188496716713      1.44325699785759
  H   4.65136977980087      1.95764175690512     -0.84828707067951
  H   4.96039408040527      0.26525184649860     -0.85039974938704
  H   2.11108570833047      2.77467244178916     -0.39329704417303
  H   0.23706848727618      3.69138286662470      0.73475361370996
  H   -2.34127467950925      4.31443993637367      0.62595953065815
  H   -3.70732120995277      2.13628488972512     -0.00143581502299
  H   -3.85724078048264     -0.99498427630015     -1.41069061576597
  H   -3.65857205908257      0.70746994967393     -1.59419530289613
