24
Coordinates from ORCA-job ./opt_b97-3c_parallel
  N   3.36604477530081     -3.56682292655704     -0.27149580078557
  C   2.63184782472449     -2.67593735772013     -0.14722551247007
  C   1.71938243250244     -1.59431736747113      0.00856154153441
  C   0.42326632902739     -2.01199789777169      0.44842556924407
  N   -0.74442707408731     -1.47002594079483      0.38547832586340
  C   -1.28198523220917     -0.29150579197954      0.12445884270022
  C   -2.64127679914086     -0.14556878135779     -0.16441261038860
  C   -3.57746982127358     -1.16957914563864     -0.33826548316405
  N   -4.37615290466076     -2.00063211046993     -0.48699969040623
  C   -2.91164203001609      1.25711580395510     -0.12013237478012
  N   -1.85186852587570      1.99151092913313      0.14448350648642
  C   -0.78140029365658      1.12804476078119      0.21863521787257
  C   0.49125810486868      1.63116362051060      0.18601959488434
  C   0.73562494879337      3.03965783019693      0.20932629463187
  C   2.07637316825682      3.26448817731086      0.02951798847905
  C   2.73186767339823      2.01998358262092     -0.14894024784515
  C   1.81834234079172      0.97833905090444     -0.03984727255698
  C   2.26143934737081     -0.33632981383267     -0.19189003054608
  H   0.41148311514002     -3.02243973924439      0.85114733812191
  H   -3.88501555951836      1.70707313965163     -0.25571999048847
  H   -0.04177428199876      3.77118904918144      0.33997128943241
  H   2.56002866144618      4.22869694653782      0.01636845281144
  H   3.78550577465167      1.88793368366923     -0.34073840163110
  H   3.31150951776420     -0.37610954881590     -0.45795266419981
