30
Coordinates from ORCA-job ./opt_b97-3c_parallel
  N   5.68656603548891     -0.20246409306266     -0.47394553464548
  C   4.53568958838515     -0.16368346949872     -0.31250916054464
  C   3.14739162120722     -0.12112558710161     -0.10632657733145
  C   2.33306550436087      1.00868731217189     -0.18709217255748
  C   0.99156954019227      0.61579187899540     -0.01100529229748
  C   -0.06080727103324      1.54073348008236      0.07916856960475
  C   -0.00223903941487      2.86619079281752      0.43256191071480
  C   -1.34166104417832      3.34699825136476      0.36493300543564
  N   -1.76502563284602      4.55990697020902      0.71120447662890
  N   -2.23514028289728      2.42988083133694     -0.08045166571149
  C   -1.51949411094452      1.31882043770275     -0.28718338381862
  N   -2.03525679270276      0.30419295238453     -0.92913900296764
  C   -1.89642905790815     -0.99139260121273     -0.91862120094934
  N   -2.45977382200944     -1.65033379322585     -1.94885647670309
  C   -1.34976300534354     -1.80677980908803      0.14941014885626
  C   -2.14007197290317     -2.89411577614349      0.55552286696819
  N   -2.76130844024722     -3.81424198601125      0.91220147928921
  C   -0.04700459310139     -1.71809179037897      0.65908620921904
  N   0.34120376323523     -2.65555525825908      1.54858309341776
  C   0.99542980664571     -0.82301024203034      0.22519360112471
  C   2.32463665705156     -1.23933349145268      0.18586305058153
  H   2.66397432125775      2.00854681544922     -0.41194405502599
  H   0.85546648629530      3.40658947345487      0.79621057541677
  H   -1.13293751628114      5.27215618512616      1.02483708953647
  H   -2.74578397223911      4.77052587258631      0.64945160746273
  H   -2.44281789814716     -2.65272461898079     -1.98783947116785
  H   -3.07623755270801     -1.15216324583597     -2.56709615298527
  H   1.21356199605473     -2.54644482841535      2.02892671910628
  H   -0.28124668862956     -3.38635134977739      1.84757953772788
  H   2.67792989186027     -2.25295407870666      0.28141402921501
