33
Coordinates from ORCA-job ./opt_b97-3c_parallel
  N   5.21942771583542      0.82860763094259     -0.94585762132029
  C   4.14707537579805      0.48567899667388     -0.64999075219184
  C   2.88377687910580      0.01750287723839     -0.27724856600189
  C   1.68727998072288      0.74233490600355     -0.24934683717594
  C   1.63126194162724      2.10326324626572     -0.74446627084635
  C   0.95795033302476      3.14974766885126     -0.25224620096675
  C   0.07546649660778      3.20100823361598      0.90051241976316
  C   -0.96763263010871      2.40791015014336      1.15776634709583
  C   -1.43349160298585      1.26665258085525      0.38925941615664
  C   -2.81141133119502      1.01068277699518      0.19727621106749
  N   -3.80635952110632      1.85125153010009      0.48381764686704
  C   -3.01313576015445     -0.31989971082710     -0.30289520046513
  C   -4.22376122018128     -0.86417976116838     -0.72022574345932
  N   -5.24556833744340     -1.30942414255119     -1.06251606518199
  C   -1.75369698303214     -0.89887605885842     -0.40656150854599
  N   -1.48067585330508     -2.05693500060491     -0.99267179548837
  C   -0.73504563643945      0.09214577100724      0.06064057792315
  C   0.63680682392292     -0.16802760227935      0.11804741726028
  C   1.25466223873160     -1.45724041778453      0.36532343668667
  C   0.70116172554960     -2.58566285740428      0.96842429432810
  N   0.27926290766064     -3.56668640103886      1.43831847400650
  C   2.63232546442938     -1.33005130055462      0.15063914382509
  N   3.57617526342811     -2.27747168739660      0.30248565217302
  H   2.31798185067540      2.30710040428798     -1.55962236784541
  H   1.16036617597028      4.11215893418058     -0.71319064103267
  H   0.25663108345713      4.02761229785119      1.58125779454636
  H   -1.55226924099786      2.63741766764938      2.04726216916587
  H   -4.76224408171446      1.59088719934832      0.31457164337811
  H   -3.61378061245783      2.81473089452308      0.69083984746637
  H   -0.55752657427043     -2.45102406207808     -0.95332364041786
  H   -2.22995699364490     -2.66433880301934     -1.27843759672102
  H   4.54247796399526     -2.00444787639667      0.34001237021848
  H   3.33450873749505     -3.13649900447071      0.76537253293267
