26
Coordinates from ORCA-job ./opt_b97-3c_parallel
  N   4.58431184009946      0.37148585212120     -0.80605340806499
  C   3.48356783348896      0.66802981265730     -0.57199009032174
  C   2.14346283041829      0.95078266145362     -0.29256395878628
  C   1.60143472192423      2.15091027401162      0.07439419291236
  C   0.21071662198905      1.99106109786865      0.35787757834269
  C   -0.59106557037186      3.08077777546063      0.71727326109317
  N   -1.21618087868256      4.01210164282138      1.02513947249827
  C   -0.17112569124880      0.65437562951571      0.15074598999181
  C   -1.48679464588156      0.15961268848739      0.05589869321934
  C   -2.65010369240174      0.94537977260358      0.11295205361784
  N   -3.75890920056927      0.29391092165056     -0.32069865505988
  C   -3.35742267726278     -0.91571448983502     -0.70226606747795
  C   -1.97229340790435     -1.12597215487720     -0.47254908213540
  C   -1.46385178091850     -2.40167129605207     -0.58348225584898
  N   -0.42010821711367     -2.98937473085294     -0.02663801320794
  C   0.72974622688148     -2.53594124360201      0.37605155214987
  N   1.42270117192499     -3.31513646182267      1.22828561649027
  C   1.46134800812618     -1.36568005891536     -0.08247419584999
  C   1.10089560276359     -0.06903242566087     -0.15525413355071
  H   2.13069063668475      3.08692640358069      0.14850006101483
  H   -2.72312999576924      1.97741805345872      0.40736434509111
  H   -4.05656534800134     -1.65399598543843     -1.06886115135331
  H   -2.11000043678605     -3.10347243791780     -1.10510394101038
  H   0.99411723567636     -4.15478307571541      1.57814402120763
  H   2.28954820380973     -3.00977557186694      1.63030758850811
  H   2.51510779592419     -1.56354234763982     -0.25357280917117
