27
Coordinates from ORCA-job ./opt_b97-3c_parallel
  N   -5.31444723349896      0.17668860152438     -0.94291269087109
  C   -4.20499805276041      0.40422827227835     -0.68358809689997
  C   -2.86390687842653      0.66730491963141     -0.38083376917716
  C   -2.25798535075039      1.88683682449728     -0.24746008385397
  C   -0.88074226726607      1.74276718785637      0.12544617870306
  C   -0.03327715628619      2.85324660041753      0.11347040873989
  N   0.64481111525019      3.80044962210344      0.10562609260787
  C   -0.55829060803102      0.37542327962070      0.21731559290416
  C   0.68476349484587     -0.26479374775066      0.24368778833026
  C   1.94688713050929      0.36877739787765      0.45012972765841
  N   2.24311657517242      1.40940072254241      1.23439112359874
  C   2.94731656291163     -0.36073902456180     -0.27745477041811
  C   4.30193235306122     -0.00175840250093     -0.29856248000788
  N   5.41010222723177      0.34851947324085     -0.27647666619126
  C   2.35383401639317     -1.45897978685527     -0.87597378264705
  C   0.99681028484758     -1.52483755432812     -0.49197361905963
  C   0.33523133750092     -2.72835761376376     -0.59713199603957
  N   -0.59594798269706     -3.21002770179932      0.22952833450050
  C   -1.56572747424647     -2.58402227587854      0.79630991634580
  N   -2.24741116468136     -1.52282034647310      0.33607086088033
  C   -1.89569923655671     -0.33734570407801      0.01729172628029
  H   -2.72973456908289      2.84129858013976     -0.41791070581014
  H   1.51807451784315      1.98034589013809      1.62864870033314
  H   3.12477389931357      1.87921092098277      1.10638104647390
  H   2.87477648203016     -2.21978079608329     -1.43390602132830
  H   0.76143355619552     -3.46194121684013     -1.27346984263609
  H   -2.01454985652510     -3.05161925413903      1.66908556217939
