34
Coordinates from ORCA-job ./opt_b97-3c_parallel
  N   -3.48864053238083     -2.90866243392267     -2.20228502085277
  C   -2.74602420576345     -2.30173414780348     -1.54483918201628
  C   -1.87244922652875     -1.57736813152449     -0.69754250383708
  C   -0.54003930393781     -1.81709875743658     -0.79486320298282
  C   0.55054612018724     -1.20954473011666     -0.11511688812279
  C   1.77040151954184     -1.91370296859083      0.08634412777775
  N   1.94909232937234     -3.22282146688536     -0.06341428392129
  C   2.81686260612089     -1.01325420157806      0.45700850479102
  C   4.09519301346230     -1.37884813686749      0.87442865400484
  N   5.16151441348074     -1.70154866900564      1.21409701466421
  C   2.26524664353857      0.26393173099899      0.46390593423806
  N   2.83868232389527      1.35701850544444      0.93564346734836
  C   0.83893761360782      0.17615369341661      0.03893686727610
  C   0.05137177377610      1.27165077802459     -0.24486325572099
  C   0.51300033229933      2.57065331216664     -0.74085035751425
  C   1.74871802086280      2.85049417677164     -1.33994514125804
  N   2.78980842538201      3.09286033930794     -1.80192395786201
  C   -0.59086897919772      3.40014373862613     -0.82299495545401
  C   -1.72941998820173      2.70228569489424     -0.34971969798028
  C   -1.38617681332730      1.40060037382332     -0.04832955883222
  C   -2.27555195026444      0.50005916481908      0.67422022711467
  C   -3.03755192837416      1.07593548884639      1.71439887204976
  N   -3.69869501793213      1.50254617986728      2.57247119847843
  C   -2.53570077931124     -0.81294031945713      0.38101959691034
  N   -3.44364262223342     -1.53680492085639      1.08289509763805
  H   -0.26788124865219     -2.59154081812318     -1.50900353253494
  H   2.85772737571304     -3.63440717095749      0.06438470024921
  H   1.17008782106779     -3.84563563043637     -0.17687685595300
  H   2.38161284209104      2.24915099721040      0.85446533119587
  H   3.82434742701950      1.36455301842138      1.13973500836361
  H   -0.58422985612603      4.39552997712144     -1.23677928777105
  H   -2.71114672300060      3.12786864593058     -0.21659259639209
  H   -3.78010223511725     -2.40063937497214      0.69668802613113
  H   -4.07337143836938     -1.05769138535767      1.70620275867522
