30
Coordinates from ORCA-job ./opt_b97-3c_parallel
  N   3.22422929697289     -2.44176905944216     -0.41839556329171
  C   2.60893071997791     -1.45205666573452     -0.32087861839307
  C   1.97678130084020     -0.22232586359495     -0.19264145014010
  C   2.67273075328626      0.88757684024745      0.40979377211858
  N   3.98022992460696      0.88955843745862      0.68200956894612
  N   1.90084809722008      1.93106294112972      0.69526441589482
  C   0.65224904307870      1.60093075065846      0.27338978331651
  N   -0.25582425910762      2.50863100596047      0.17003818847135
  C   -1.50913019839002      2.47195749975437     -0.31844998691338
  N   -1.72582619179051      3.33243675465144     -1.34406199963956
  N   -2.56971471149947      1.86433178049447      0.17272679945630
  C   -2.59602383583830      0.62852187555635      0.65957370696307
  C   -1.80109788089820     -0.46253217104652      0.40588001655627
  C   -2.31165582394784     -1.79170188558121      0.59238308559110
  N   -3.43924171693688     -2.12521479459465      1.28277223665034
  C   -1.57014953398709     -2.68899441133364     -0.17624857418309
  C   -0.52603818910317     -1.99500694505802     -0.79268759226880
  N   0.30741627714641     -2.52014472687352     -1.71712153974144
  C   -0.53276511126060     -0.62226299645660     -0.35584301505818
  C   0.60723698364298      0.14220842698141     -0.19005126376907
  H   4.35629505038696      1.64226190319851      1.22953255449839
  H   4.53365930821287      0.06335595498313      0.54361368128371
  H   -1.04784015053280      4.05822476208575     -1.49385723630472
  H   -2.68294703220247      3.53106455265184     -1.57624542956680
  H   -3.50539927396159      0.43054529205528      1.22099409906747
  H   -3.70630982041645     -1.53395026697701      2.04950361877982
  H   -3.57128311491483     -3.10278266605018      1.47288434037338
  H   -1.79699766559214     -3.73533005204786     -0.31525878074401
  H   1.10127741869074     -1.97771454219887     -2.00499958115910
  H   0.49900163711671     -3.50657605317628     -1.67723358859314
