24
Coordinates from ORCA-job ./opt_b97-3c_parallel
  N   3.87750263631326      1.06068462385557     -0.23606901082458
  C   2.69603227138092      0.45747027286587     -0.11550880945816
  N   2.58285013511280     -0.87673516019882     -0.29695111873547
  C   1.28616685740549     -1.13841515812563     -0.06481838388692
  N   0.87981847475951     -2.37160929938090      0.04087210237423
  C   -0.26998831827837     -3.00845070458154      0.16193819850393
  C   -1.59177881446736     -2.72917161878658     -0.15040180714499
  C   -2.28323069862343     -1.53547988983420     -0.35126288768731
  C   -1.96215183891167     -0.20436615647739     -0.20326282103174
  C   -2.95870081844959      0.78803337390651     -0.31848304949709
  N   -2.52174535731848      2.03243236309844     -0.11549911793130
  C   -1.19172711276150      1.92476609224647      0.12553876167058
  N   -0.43572351003444      3.00078187066538      0.35442504269378
  C   -0.73578510349820      0.56006305222455      0.10369115543689
  C   0.59423367474165      0.22281106381930      0.14823763562813
  N   1.57596041573226      1.15353411644624      0.18806061808964
  H   3.97556039711478      2.02963471676934      0.00302097014289
  H   4.69368660901871      0.50464159731082     -0.41257912606809
  H   -0.12276634537353     -4.02851962947166      0.51631610520969
  H   -2.22135118110078     -3.61108579839610     -0.14770985432434
  H   -3.33293446229737     -1.68389099729964     -0.58736034565434
  H   -4.00089178479346      0.59875960046594     -0.53544578044944
  H   -0.83614239636627      3.90555743016079      0.17956372840901
  H   0.56777713059505      2.85605803951743      0.35051078303499
