30
Coordinates from ORCA-job ./opt_b97-3c_parallel
  N   -4.42701556345692      2.00221387908595     -0.63588194461246
  C   -3.46410960633663      1.37794599533359     -0.43848518146621
  C   -2.35288500788367      0.57087654120118     -0.18665516922715
  C   -1.00333066987123      0.94492196818078     -0.21941597366264
  C   -0.62226081585533      2.23173548494580     -0.63668940261632
  C   0.49799026726895      2.99145591134579     -0.39560762308282
  N   1.54776317222377      2.82225101077366      0.40265004769641
  C   2.25226514741116      1.75855042712432      0.64784225675205
  N   3.21547177815608      1.88413243268451      1.59431581884450
  C   2.22998746257801      0.48780304388713     -0.05459032650915
  C   3.36619583633996     -0.21062219347619     -0.41350194762252
  N   3.12190807471813     -1.48723439111043     -0.82171415440658
  C   1.82576832012691     -1.69279444007495     -0.63679315213969
  N   1.24836391027442     -2.81737443024426     -1.10928941311625
  C   1.14100309006143     -0.45500819578061     -0.15216275837418
  C   -0.21196880967216     -0.28614340299019      0.05561703098473
  C   -1.16085998284199     -1.32355624668022      0.34161991767160
  C   -0.93305064673293     -2.58981507982284      0.86458801384305
  N   -0.77608588940310     -3.67277799074480      1.27203725272236
  C   -2.45870235669490     -0.80265496017953      0.19635603777378
  N   -3.60591792713059     -1.44494177317281      0.40934384242743
  H   -1.40586606827608      2.77368755187801     -1.15323561927409
  H   0.46281398426153      3.98693413871286     -0.83165529342866
  H   3.62836858858408      1.06229504214247      1.99312842632629
  H   3.25395499743988      2.74194443970951      2.11821170065942
  H   4.38042518283216      0.16072028018449     -0.37786305704966
  H   1.91086341379860     -3.48266585286578     -1.47467520238387
  H   0.46480359271956     -3.22728962263142     -0.62935701242182
  H   -4.48598152787851     -0.96849822815691      0.32107279735858
  H   -3.61253255786057     -2.40258147765919      0.71322641913389
