32
Coordinates from ORCA-job ./opt_b97-3c_parallel
  N   5.05805472495706      1.37680124700113      1.50530524940093
  C   3.99768684545573      1.23243593469494      1.04702082483327
  C   2.72867602181903      0.99377528745164      0.51258086224489
  C   1.84760933129823      1.93084309706953     -0.08864802231327
  C   0.64059848304696      1.33224352833887     -0.38946286252728
  C   -0.34909026539969      1.92701730247546     -1.27595479433474
  N   0.15065257457916      2.56095670627164     -2.36781501587952
  N   -1.62800217000152      1.97677542237271     -1.09686580145740
  C   -2.32745483066854      1.54381336348919     -0.03173326825471
  N   -3.06584772622959      2.49406520625383      0.57475040562826
  C   -2.45932711910183      0.19856759224000      0.37515231151133
  C   -3.54374771650181     -0.07404919906480      1.23394533635363
  N   -4.45009100528127     -0.24112666318327      1.94620792169599
  C   -1.70271263063907     -0.91928861742179     -0.07435110199201
  C   -2.22183168830564     -2.20501768560688     -0.09874985834031
  C   -1.19947782440322     -3.12489619629384     -0.36150650957776
  C   0.02652107847371     -2.46292477235525     -0.42983285041543
  C   1.21630348567720     -3.05979965148223     -0.85137786128011
  N   2.22833576845088     -3.55303192208464     -1.15451855164829
  C   -0.21294345523005     -1.05424325339812     -0.24666202729706
  C   0.73469225873179     -0.07298279750078     -0.06743956151902
  C   2.09686223893234     -0.25379413608593      0.51076723830516
  N   2.56507385979931     -1.33760019687378      1.13916693208008
  H   2.10703812471552      2.95489772300418     -0.30703111701607
  H   1.05050288593643      2.28440112342278     -2.71500740325743
  H   -0.50804419669449      2.92337411230294     -3.03652525367956
  H   -3.12965919825034      3.39206897733614      0.13109840202450
  H   -3.77478267830546      2.24532710039262      1.24411536794247
  H   -3.25947697648427     -2.44943681093944      0.05645113987110
  H   -1.33131298866208     -4.18165672869106     -0.53412125718565
  H   3.49564830009991     -1.28179913319564      1.52199359740506
  H   2.27236983328104     -2.25974634704456      0.86397463057932
