28
Coordinates from ORCA-job ./opt_b97-3c_parallel
  N   -4.89531015422176     -0.76396684007478     -0.98404737298980
  C   -3.83324241546318     -0.60993095809464     -0.53145675586235
  C   -2.54228653844335     -0.38870425921353     -0.01804724854716
  C   -2.11624726340461     -1.26024736552448      1.05843169393516
  N   -0.98702168354935     -1.82661527938291      1.23829069817606
  C   0.13749173071080     -1.82893096707893      0.47445688412640
  C   0.80846002129495     -2.98647259373283      0.14670319501840
  C   2.07372174841521     -2.64687072522679     -0.38372043040514
  C   2.26200010651114     -1.27230519586943     -0.33648228351211
  C   3.36523169627432     -0.60995045909549     -0.87059561042041
  N   4.29246480076089     -0.02488828016349     -1.26950352809352
  C   1.02344303234863     -0.68241755225455      0.14053218523993
  C   0.67288697997139      0.63639830676954      0.24028745355814
  C   1.57928888182862      1.81218241117353      0.54624834285565
  N   2.86506796752438      1.76172947975730      0.88021465731529
  N   0.88387596691470      2.93170868729237      0.68070035703565
  C   -0.40351572893551      2.60325403727609      0.40306508495921
  C   -0.62456046094340      1.24840891199406      0.17323180440592
  C   -1.87034265760805      0.76085062963579     -0.40022623243753
  N   -2.46311473484044      1.62055381255471     -1.26261366198218
  H   -2.88266238277236     -1.51176685516178      1.79009033819712
  H   0.44415459438847     -3.98320458193851      0.32962270216307
  H   2.79537560914848     -3.34433769169756     -0.77930980781815
  H   3.47992887813664      1.04867315211497      0.51918571134485
  H   3.28899248445899      2.64154404129393      1.12702569623181
  H   -1.15364372055414      3.38008985155500      0.35822740500804
  H   -3.32844020964633      1.36764502339199     -1.71072857618086
  H   -1.90902591757524      2.32879565769457     -1.70618086552291
