29
Coordinates from ORCA-job ./opt_b97-3c_parallel
  N   -4.09394176640761      2.14634701093157      0.11002211879657
  C   -2.93562580839374      2.03530023132291      0.12756960362713
  C   -1.53811888009807      1.94732777805855      0.14606457188813
  C   -0.70229744825693      2.99226086385984      0.52591362876641
  C   0.63083284454897      2.55638792240634      0.56153101024498
  C   0.68890102568541      1.20529943989905      0.26065851815720
  C   1.90682135418902      0.55983336323080     -0.07457863827979
  C   2.97830188035769      1.40630158530126     -0.43181226967797
  N   3.88958427458340      2.06301852267923     -0.73956990629794
  C   2.23120549472653     -0.82134347146357     -0.03810213732104
  N   3.36528180454022     -1.23992902379436     -0.64852210897091
  N   1.61181665117399     -1.75584458005194      0.67869011332682
  C   0.38615283986585     -2.17426319373587      0.72272384852403
  N   0.11893417872239     -3.17115011069939      1.60839609899881
  C   -0.70146403990238     -1.80596372206276     -0.15231599764438
  C   -1.61738994551910     -2.69916396288166     -0.64888148755584
  C   -2.67494711612823     -1.97719081929807     -1.30152980722657
  C   -2.46593778498460     -0.64336952075845     -1.12797434709266
  C   -1.21524160252600     -0.45520376534437     -0.42567095828969
  C   -0.73244788341567      0.76348689089050     -0.01378340263940
  H   -1.04598314107979      3.98278344544788      0.78099200190382
  H   1.48622516903874      3.18163753103302      0.75556567860786
  H   3.72033829388147     -2.14159779166486     -0.38551652798402
  H   4.02730013343376     -0.56762779143981     -0.99774264202080
  H   -0.82941526232204     -3.30161382488396      1.90793066503788
  H   0.84507175533509     -3.41641196734190      2.25965172740474
  H   -1.55178843591748     -3.77265413521717     -0.55928694724105
  H   -3.49542509951447     -2.42852908255912     -1.83684080093176
  H   -3.07664324171544      0.15348485133735     -1.51133163090997
