30
Coordinates from ORCA-job ./opt_b97-3c_parallel
  N   -4.68329031550832     -2.23743922663402     -1.15943480570753
  C   -3.70764085371935     -1.72006526310718     -0.79219983150987
  C   -2.55171098069975     -1.07503053156165     -0.30038308160881
  C   -1.33038424980283     -1.55434860048448     -0.70091790654128
  C   -0.00368412742525     -1.27495920569669     -0.33270569703390
  C   0.98383457253850     -2.21389081911742     -0.59748737790711
  C   2.24779165534068     -1.76967122245190     -0.14649795169943
  C   3.44769208939874     -2.48787254382805     -0.12000273924021
  N   4.47048921777393     -3.04000560200600     -0.06953370120712
  C   2.09693679599829     -0.47078648411739      0.35374929721883
  N   3.03099653872937      0.20350735934496      1.03095239741845
  C   0.69445812979969     -0.07143700250692      0.17839667630806
  C   0.24320336851331      1.21818933356556      0.18980643487238
  C   0.99650500360218      2.42667660148216     -0.05880185374296
  C   2.30618484120461      2.54075852401576     -0.53146737907558
  N   3.40833215693613      2.64770301476065     -0.89450355509105
  C   0.08687438423355      3.48554719093551     -0.10625294265522
  C   -1.20840199995406      3.05136557837093      0.20147756418628
  C   -1.19083382573901      1.68072912157276      0.39354575411028
  N   -2.19800589046823      1.02808126855781      0.96532820700339
  C   -2.77523352975238     -0.11571807176101      0.78490875072927
  N   -3.73264358863162     -0.45616034124033      1.67149168629264
  H   -1.40566401552391     -2.40578337782225     -1.36804365514892
  H   0.81061147064289     -3.16719490002378     -1.07099232518920
  H   3.98522079597580     -0.11360378532516      0.97210661259580
  H   2.91964899838467      1.18341551356410      1.21727038502431
  H   0.36136054871693      4.49303196568266     -0.37942749232901
  H   -2.07805191629733      3.67326746366905      0.32790888124586
  H   -4.28903113642766     -1.28160370078710      1.54229872897676
  H   -4.04313103533985      0.23496904574877      2.33115805510473
