30
Coordinates from ORCA-job ./opt_b97-3c_parallel
  N   -4.21501874791069     -0.50739496851888     -1.38195177493719
  C   -3.17601994213226     -0.39254686092734     -0.86420231612855
  C   -1.93663759686329     -0.21620125342669     -0.23065154200209
  C   -1.60367778528027     -1.18550915759928      0.85729327518807
  N   -2.50120791483013     -1.18440132140016      1.87916941937459
  N   -0.62388910941208     -2.01089085219267      0.91903139757103
  C   0.42410623466423     -2.08649473396805      0.05798337951601
  N   0.94943454616616     -3.25589670402571     -0.25715955682952
  C   2.14321332694884     -2.99011934349669     -0.89179743900030
  C   2.48117518990811     -1.65872865534195     -0.88277114352501
  C   1.35575972429064     -0.98266098600990     -0.31943707022872
  C   1.22236022500689      0.35454515094864     -0.02593336533925
  C   2.35463021742762      1.25654497563199      0.30225162324526
  N   3.62422158759883      0.86403003569995      0.39780946579285
  N   1.96519919442740      2.48917996647053      0.58439567058536
  C   0.60689565988176      2.47837528246093      0.41417655612509
  N   -0.07114455759531      3.61425463267232      0.59119389244074
  C   0.08295068466051      1.20015222880039      0.07817012408130
  C   -1.23849270635454      0.94962484330368     -0.42614882730497
  N   -1.82778274831874      2.00197592674131     -1.10994567169271
  H   -2.45995103057829     -1.96458566146798      2.51378953081410
  H   -3.40215842294226     -0.76565251883023      1.73461482877596
  H   2.68861411884572     -3.79734309777946     -1.35888651036659
  H   3.30318464509193     -1.20611955587349     -1.41488098133473
  H   3.83467137974800     -0.12010256948165      0.36066585197803
  H   4.28789731999595      1.48620482945777      0.82553559711476
  H   -1.06334080674548      3.64335154333540      0.43672970968045
  H   0.43291722852163      4.45547367118402      0.80515341641807
  H   -2.72290128542672      1.79366571331718     -1.52770482647799
  H   -1.21349438889403      2.48400481931610     -1.74783401603401
