29
Coordinates from ORCA-job ./opt_b97-3c_parallel
  N   0.50953456760930      4.03490245715055      0.87926922510771
  C   -0.26547950193744      3.22097433098025      0.56927629755783
  C   -1.17515758751738      2.24848468103847      0.14915691631135
  C   -2.55238989250137      2.43836686513841      0.08642492140816
  N   -3.24299133676438      1.30982804232089     -0.19415549102169
  C   -2.36327424801139      0.31057723888006     -0.22308970034187
  N   -2.72336667588709     -0.89045534300617     -0.70455725445472
  C   -2.25392752987582     -2.02230398667229     -0.29178563265463
  N   -2.43671171520905     -3.11832759998307     -1.06675148716110
  N   -1.67006933304541     -2.32663267276521      0.93506441191269
  C   -0.43355702997333     -2.06425213591252      1.15077068670276
  C   0.45510276197765     -1.23546008451199      0.39175900655325
  C   1.85077972892046     -1.42818484319762      0.39636458045710
  N   2.50539942400637     -2.50270273305011      0.84944850224003
  C   2.51156697000509     -0.27239578901298     -0.12798112043336
  C   3.87494099030259     -0.17024865743441     -0.39633172983737
  N   5.01824228492549     -0.10092099691332     -0.61005514576028
  C   1.53114257440860      0.67502532445126     -0.41189356419457
  N   1.73422464924615      1.81076431684111     -1.07095660641758
  C   0.20507915023115      0.11367655816461     -0.04274316283464
  C   -0.97318200272980      0.82740559576779     -0.00576188535226
  H   -3.06782687458892      3.36677221244551      0.28191086701008
  H   -2.42850573403093     -4.01549283894697     -0.61600621557861
  H   -3.05270176250256     -3.00893184759643     -1.85392797029151
  H   -0.02057356643059     -2.50595017489661      2.06176215667086
  H   2.02351164738371     -3.35867714992118      1.05043757357570
  H   3.50901094492639     -2.53776568509344      0.81117175469575
  H   2.67821156609992      2.12751032438668     -1.21853914426030
  H   1.02508692876350      2.52162393044821     -1.10547783310904
