22
Coordinates from ORCA-job ./opt_b97-3c_parallel
  C   -2.75945194482294      1.71710349999568      0.25782670837949
  C   -2.95309708765140      0.30227748775355      0.17937080705814
  C   -1.73820056873074     -0.32775015656140      0.05164126234585
  C   -1.63453976080663     -1.69726788264993     -0.26408072879302
  C   -0.60513627681090     -2.60442758488818     -0.29053186627390
  N   0.62766188662423     -2.60977217338656      0.23579103672274
  C   1.52076918201772     -1.70984342579283      0.46040996430736
  C   1.64487110356869     -0.35100972614126      0.05447003710116
  C   2.86492277640553      0.27772066498248     -0.03090455189299
  N   2.76253126522974      1.62822934395424     -0.33364959465179
  C   1.48333187416410      1.89731124529517     -0.36806474583459
  C   0.65620971269658      0.72291568225876     -0.13835452266265
  C   -0.70073783908694      0.77712590352260      0.01921149407841
  C   -1.43096410167330      2.00728551108546      0.13504021560642
  H   -3.54883839976846      2.44022415493271      0.40017564581154
  H   -3.90875916532019     -0.19803739872941      0.19082903554455
  H   -2.58548578767225     -2.13604702577805     -0.54828419425061
  H   -0.87200731266711     -3.57637853700427     -0.69581984907019
  H   2.38804595348844     -2.07993167157449      1.00729675611414
  H   3.83598604292935     -0.17241908636546      0.10788198112362
  H   1.12337340713855      2.88818364555713     -0.59803441591815
  H   -0.98811481075219      2.98577230263405      0.19284951495445
