30
Coordinates from ORCA-job ./opt_b97-3c_parallel
  N   4.15186319421261     -2.84557013431537      0.75647031185641
  C   3.22493676653851     -2.22750757954030      0.42203113181882
  C   2.08939142228136     -1.49161644053585     -0.01057675479784
  C   1.16842526788050     -2.26100868592597     -0.83012254051465
  C   -0.15910875056185     -2.19117625077639     -1.01904530915555
  C   -1.20080603142332     -1.39938137603822     -0.41019309132114
  C   -2.47567259640003     -1.88196217425783     -0.33017530256895
  C   -3.33650191280506     -0.89353461774800      0.28581394895929
  N   -4.65479476392484     -1.12541057456150      0.55989116042765
  C   -2.60613318338087      0.25132212293725      0.48538732618554
  C   -1.24819500842530     -0.00002957213825      0.06633468308882
  C   -0.25838217787858      0.95162015232227     -0.00017884287733
  C   -0.53302946020960      2.41254376127965     -0.04259203774409
  N   -1.74606007826034      2.97756154232986     -0.16690646884438
  N   0.56508431754370      3.14095894837605     -0.04516380501973
  C   1.59425199350154      2.23571578877682      0.01944542794130
  N   2.85149569393098      2.70551819286057      0.12245911069771
  C   1.18122031929344      0.88796796574465     -0.00018800299272
  C   2.09546058439150     -0.15672296744794      0.27437053026930
  H   1.65815795811409     -3.07743595593177     -1.34964642898562
  H   -0.55397111464393     -2.95587638243046     -1.68020934551685
  H   -2.79996362179685     -2.85271297044193     -0.67633508742340
  H   -5.10893656781020     -0.48690914170963      1.19034699663581
  H   -4.92791346378048     -2.08318216591670      0.69833313384525
  H   -2.93000902669380      1.09935938563358      1.06583484504161
  H   -1.75911842204136      3.94248982473368     -0.45214032017143
  H   -2.51053742179043      2.39551221241816     -0.46679831960825
  H   3.62507066602809      2.12200200003073     -0.13679011091599
  H   2.97597540036595      3.69627168282767      0.01475407166809
  H   2.99354389124468      0.17218857034501      0.79089536732222
