25
Coordinates from ORCA-job ./opt_b97-3c_parallel
  N   4.96404602676827     -0.09502519245469      0.37770267012344
  C   3.87100304409333      0.28681476912043      0.26585625814296
  C   2.56659895987607      0.76866820556622      0.12963287055191
  C   2.16618948105445      2.14936751692527      0.02617612900394
  N   0.88395013549540      2.31612054819211     -0.18799227927900
  C   0.32921315650303      1.04112980909137     -0.18676171351403
  C   -1.02621229626125      0.88185177433951     -0.20852224141668
  C   -1.92517505552542      2.00854033585074     -0.43240130318653
  N   -3.18048099225533      1.69012894807417     -0.29677631306357
  C   -3.18644321042303      0.34417526964328      0.07986996118269
  N   -4.37129673679497     -0.21134173415838      0.36032476608570
  C   -1.90549173854693     -0.21865958282198      0.12335548086339
  C   -1.62179661457674     -1.45187540178178      0.77042671469010
  N   -0.61607407236016     -2.25026199729267      0.70289001405117
  C   0.42821287026975     -2.16381528780043     -0.19056005584028
  N   0.51799290630196     -3.25950660200522     -0.98179144199784
  N   1.39185690526032     -1.29341556453725     -0.28441880274224
  C   1.41092012447328      0.01524571748784     -0.04978261867110
  H   2.83716636065386      2.99392604883170      0.10245999720941
  H   -1.60151197827745      2.99968994109853     -0.70667033437304
  H   -4.48418379996030     -1.20218813890191      0.45674374732398
  H   -5.19524839057499      0.35193543404726      0.24942807809005
  H   -2.38833900782237     -1.77967324263658      1.47714277018979
  H   1.37782327425553     -3.38535105467189     -1.48716495279851
  H   0.01628829897366     -4.08312683220612     -0.70203703972574
