32
Coordinates from ORCA-job ./opt_b97-3c_parallel
  N   -5.22400689498036      0.98387979003514      1.41825725767712
  C   -4.14328616691964      0.85564455388685      1.00885346389398
  C   -2.86298908061282      0.60748712471404      0.49565985934915
  C   -1.88658949038951      1.49794720686596      0.17265335959696
  C   -0.70166369710341      0.75915607655792     -0.23570142499902
  C   0.47597871589891      1.41152050415066     -0.50232221052628
  C   0.55139077529264      2.81043679256882     -0.87999252375460
  C   1.86070228015528      3.13264267890450     -1.03427901031836
  C   2.67201698422407      1.98909103281052     -0.67795891941976
  C   1.86811349434806      0.92194521791091     -0.38649178526739
  C   2.34867169424334     -0.26216336911549      0.30846129582985
  C   3.41852795216529     -0.03767050315163      1.20369024290953
  N   4.30701623851135      0.09219392251713      1.94598251759902
  C   1.99023046945757     -1.58308059614806      0.12105705595754
  N   2.74092268116805     -2.58299375206208      0.68373320173292
  C   0.96763300946018     -2.07882959928724     -0.76948852505352
  C   -0.33396454692912     -1.73439738572448     -0.87705103423866
  N   -1.18435446562986     -2.56104171231657     -1.63551477946673
  C   -1.04058105309897     -0.64313162504305     -0.22867632430664
  C   -2.36115682971075     -0.74034219736851      0.19999670795706
  N   -3.11883703290498     -1.83840564557133      0.37324847322146
  H   -1.93297778644787      2.56388554796315      0.30868682605077
  H   -0.29600725649219      3.42386935072101     -1.13713635974364
  H   2.24793660370536      4.07919786420709     -1.37949363490243
  H   3.74651870882405      1.99937717491065     -0.58172941737860
  H   2.27078875645452     -3.44725262627739      0.88603344086255
  H   3.45165159975002     -2.32384497876754      1.34939220646623
  H   1.28604685866095     -2.94860104995931     -1.33686268396792
  H   -0.69640808533813     -3.26301570479264     -2.17065563654699
  H   -1.81565136286983     -2.03979364314958     -2.22694073534979
  H   -4.10569497802414     -1.73665644501095      0.53583239740563
  H   -2.79742092516839     -2.69836753807872     -0.04216580856920
