35
Coordinates from ORCA-job ./opt_b97-3c_parallel
  N   4.50427847635171     -2.37687116473605      1.45844765647841
  C   3.57728809449371     -1.86901854484557      0.96857439030616
  C   2.43939098615108     -1.29125625021359      0.36150926232737
  C   2.56514468541340      0.08180989193180      0.07090258886233
  C   1.72600937982684      1.10190824507227     -0.27774896267539
  C   2.29542148851878      2.38320097029748     -0.60791985215858
  N   3.58653360957496      2.61207960986872     -0.93238352866472
  C   1.30665663057571      3.35491455564692     -0.57568337667645
  C   0.08731788790607      2.76452002434947     -0.23146949033927
  N   -1.06491799773087      3.46795504206041     -0.25806338166427
  C   0.27269830371809      1.32695045889498     -0.08498966461103
  C   -0.73870405383711      0.40479293495352      0.06490607819300
  C   -2.09622025312273      0.67987698933623      0.44230243677267
  C   -2.58372494441964      1.63221467119513      1.31914547389325
  N   -3.02547779876000      2.44669785846532      2.03433320026068
  C   -2.92834083710247     -0.33739668773643     -0.09254004518877
  N   -4.25735471941285     -0.38964825509812      0.02509075286302
  C   -2.12287075679711     -1.29898300646160     -0.73429297911621
  C   -2.61794868884910     -2.49230004144223     -1.25359435795356
  N   -3.05844736564535     -3.48223703067964     -1.68528969271320
  C   -0.74851495086999     -0.98579739153867     -0.49282456490272
  C   0.20821570387124     -1.94390197262132     -0.70823725151152
  C   1.46989314433636     -2.20086904563141     -0.12215980360645
  N   1.79540560479253     -3.51620153760181     -0.08367996757833
  H   3.60118068248636      0.39385758454655      0.17344907595628
  H   3.95447490891520      3.54248034001509     -0.85697168789764
  H   4.26044048791264      1.87039636780934     -0.89395929249786
  H   1.43875254213594      4.39834123597325     -0.81884567403435
  H   -1.84426708360613      3.21575891978977      0.32621057941759
  H   -0.96836530555169      4.46059458831733     -0.38514257008685
  H   -4.76205337336347     -1.19971469937604     -0.28857882331246
  H   -4.74064106697432      0.26538749400716      0.61377809730521
  H   -0.19133935290409     -2.81891421100905     -1.21007347262020
  H   2.65557825112457     -3.82188384653647      0.33771698367061
  H   1.09428218614235     -4.21207998680272     -0.25556246559734
