35
Coordinates from ORCA-job ./opt_b97-3c_parallel
  N   4.64702919316446     -1.09045729307922     -1.79700560410761
  C   3.71058974014544     -0.79381159260348     -1.16847914489147
  C   2.58735836441155     -0.43640066713226     -0.39423143275317
  C   2.00295285643923     -1.50499786719391      0.34643647175577
  N   2.79136364243364     -2.59416568174014      0.54371811911019
  C   0.70193918791744     -1.64167956368763      0.85911902372312
  C   -0.49268798396464     -1.08086640375379      0.46855823632562
  C   -1.70584173315738     -1.82016146657891      0.57189642269589
  C   -1.84401888077811     -3.12279076563758      1.04762443961221
  N   -1.98656215063441     -4.21042239226285      1.44204835772254
  C   -2.72772496037469     -1.11408536135547     -0.09650006990341
  N   -3.96446698001179     -1.55749745032249     -0.32229645339483
  C   -2.21128167804231      0.14114423955692     -0.52319960823556
  C   -2.92702364738256      1.00315119883750     -1.33926791808281
  N   -3.55829968911725      1.73144654222229     -2.00025834759372
  C   -0.86001007097919      0.24861288836708     -0.09084789135546
  C   -0.16320404164172      1.41920649592344      0.15256935837296
  C   -0.80510598085875      2.68787042318378      0.51630383705535
  N   -2.13752122070640      2.94412288650903      0.62673215344504
  C   0.18047583646471      3.54668596428083      1.00595047812772
  C   1.41669668674384      2.92907960781739      0.87772079222345
  C   1.27113720048297      1.63076305768271      0.35907338728033
  C   2.37704322503651      0.95819797817444     -0.21233009665239
  N   3.41404309947614      1.75689198064044     -0.58010575798884
  H   3.71187186896530     -2.63235773149312      0.14194509835674
  H   2.36929602093191     -3.47592317874988      0.77184464616279
  H   0.57251345023393     -2.55389551810205      1.43220042713345
  H   -4.60683576401851     -1.02425700823032     -0.88076164833814
  H   -4.23651109092443     -2.48264758710343     -0.04100047126630
  H   -2.35829833208502      3.84925042638959      1.00706697256011
  H   -2.75984308860137      2.67932853729603     -0.12017681986373
  H   -0.00432840071549      4.52291316878187      1.42699873572345
  H   2.36040941232969      3.37849565932751      1.14571187171692
  H   3.22377986415626      2.70992829991469     -0.82692610404289
  H   4.25966651186075      1.35632614152078     -0.94784302513361
