31
Coordinates from ORCA-job ./opt_b97-3c_parallel
  N   -4.69394332111240      0.67609041222022     -0.74426852510571
  C   -3.56349250945260      0.90303784040529     -0.59298846392228
  C   -2.20491522310613      1.22013194583997     -0.45589143523102
  C   -1.67279202004252      2.56150041211764     -0.56765874519772
  C   -0.33549885808207      2.52071445210325     -0.33781646365055
  C   0.05573528798185      1.13645672143350     -0.12917357772701
  C   1.34129429170727      0.70782845155352      0.10679684595903
  C   2.41592381903867      1.59462656087470      0.64977529634315
  N   2.16069526332385      2.77602493980373      1.23527995691482
  C   3.62587003673753      0.95831914894390      0.53861630141642
  C   3.37426557605391     -0.31734721568405     -0.03487415926761
  N   4.33033319154573     -1.20066164680650     -0.35575795450471
  C   1.98369511226167     -0.51920523819227     -0.24122744133046
  C   1.49150041886801     -1.52245283426764     -1.13395214044418
  N   0.36608487113406     -2.13710872476374     -1.16403380986215
  C   -0.56441234267344     -2.11089368107730     -0.14851084709417
  N   -0.71209993988857     -3.33229426540648      0.43523435765265
  C   -1.34775411024163     -1.03464480974054      0.21898138478233
  C   -2.39242824500069     -1.30654650007848      1.12650804510870
  N   -3.20824465659889     -1.60319489928068      1.90311866695458
  C   -1.16563166906627      0.33162883636482     -0.21925474022162
  H   -2.25734609251622      3.42291466858381     -0.84729478023104
  H   0.35013217181493      3.33504118928036     -0.50391378024622
  H   2.87902924556089      3.23545893469563      1.76481985910472
  H   1.20991195103614      3.01915618666284      1.45213067077083
  H   4.57574762106447      1.30537573928224      0.91276448712182
  H   4.09956874536340     -2.14612428969320     -0.59864755291727
  H   5.29932309355627     -0.98918688572161     -0.20855194638084
  H   2.16974315806378     -1.79975576866021     -1.94614899476000
  H   -1.52273214708717     -3.47864169525628      1.01560853118204
  H   -0.42880475674356     -4.11749135933576     -0.12418201711677
