30
Coordinates from ORCA-job ./opt_b97-3c_parallel
  N   -2.44143405410974      3.48712272646766     -1.72183775536394
  C   -1.80950148188335      2.67463736271373     -1.17982186108108
  C   -1.06697324409083      1.69549680998285     -0.47608649316485
  C   0.28258915652563      1.85214180479892     -0.41763743358083
  C   1.27689904036753      1.00018595371684      0.11953846270964
  C   2.57154558148666      1.45664144615869      0.49608420981424
  N   2.95163869648409      2.72373857810231      0.65855821405859
  N   3.48743187156694      0.45920543030450      0.67640305763739
  C   2.84059636845933     -0.65071067362591      0.35970221905189
  N   3.38573797005792     -1.85468795619202      0.48408605586102
  C   1.42683344127021     -0.40490354682855     -0.04227351750518
  C   0.57887227842620     -1.36578544585239     -0.53472387655962
  C   0.94211606410445     -2.62204522544107     -1.13320102982467
  C   -0.22891933672536     -3.29468082862046     -1.33050079000693
  N   -1.32349477710250     -2.61244199871271     -0.82529583948682
  C   -0.89108833556714     -1.43992398049975     -0.40682893657417
  C   -1.77445961320013     -0.59926582449165      0.38049593160353
  C   -2.70286640826771     -1.27355795144560      1.20701810754210
  N   -3.49562218567732     -1.72307171032431      1.92998789258685
  C   -1.88438705034628      0.76951745600048      0.34608082688149
  N   -2.80537632882343      1.41306996733198      1.10543624593294
  H   0.65184341381549      2.76378803465445     -0.88358206844993
  H   2.28189132918897      3.46831539660518      0.70805407203326
  H   3.89969327897702      2.91450107879785      0.93004383380312
  H   4.29977147321008     -1.93764563624760      0.89422935688612
  H   2.81519330150052     -2.67674094840917      0.38065245665862
  H   1.90604273696324     -2.88059172431776     -1.54169667463429
  H   -0.37664592252195     -4.23340691455970     -1.84222122808479
  H   -3.03843651761489      2.36512457736038      0.88650705041678
  H   -3.52122224377369      0.87352960187292      1.56569888083942
