28
Coordinates from ORCA-job ./opt_b97-3c_parallel
  N   5.12117748409121      0.37096875027317      1.18541546529332
  C   4.05701414782115      0.41596717808881      0.72315236157900
  C   2.76222316925646      0.44048005395522      0.13294240848664
  C   2.49102438105318     -0.69849606888143     -0.74033972731587
  C   1.37866016256039     -1.42319907029293     -0.91386633534890
  C   0.08768026441575     -1.34385040410092     -0.27479664566848
  C   -0.66936605576220     -2.48719275243424     -0.03210549025172
  C   -0.26071382267150     -3.80590048370197     -0.28460755418003
  N   0.07396481890243     -4.89696116415736     -0.50300966198731
  C   -1.94840177759004     -2.12005144147437      0.49999480338231
  C   -2.03360110889726     -0.75119226004932      0.51019502693530
  C   -3.08597249383305     -0.04289776351926      1.10988717052091
  N   -3.97510092065137      0.54219504438253      1.57865341655543
  C   -0.76238382133159     -0.20589598967471      0.01803495802244
  C   -0.49474310280571      1.12556203555665     -0.22317290448559
  C   -1.52703618628084      2.18259294858443     -0.60350730816630
  N   -2.73249056783979      1.93455909561815     -1.08085530008374
  N   -1.00188814970566      3.39608641302122     -0.63363285299146
  C   0.30201666744508      3.21633135682561     -0.31658159918601
  C   0.70424697000248      1.88011779421939     -0.15481016380184
  C   2.00764424700579      1.54230273957250      0.34283372733610
  H   3.37005350320496     -1.05205550920959     -1.26680875133527
  H   1.48369431341179     -2.28153269234904     -1.56814327921779
  H   -2.69259116262273     -2.80672954075088      0.86605352338517
  H   -3.30462003137325      2.71890244274871     -1.35034333131867
  H   -3.17865201859991      1.04078378153374     -0.97531970602701
  H   0.94191836037283      4.07611826084528     -0.17203273967953
  H   2.47538862232138      2.32434274757063      0.93081302014893
