29
Coordinates from ORCA-job ./opt_b97-3c_parallel
  N   -5.56787542881507     -1.54347250051929      0.28527235943306
  C   -4.55200545347332     -0.97593217531248      0.27495130933124
  C   -3.29528403079644     -0.36172416405946      0.23879522080213
  C   -2.95271266687293      0.93583352198179      0.64247805743195
  C   -1.59276853391424      1.17241757899199      0.43356247192644
  C   -1.08495933634924      2.44501763866153      0.71337919986498
  N   -0.00176073826169      3.08380889831119      0.36056294324956
  C   1.08994012662025      2.61653588818522     -0.24917990473441
  N   1.61579556443290      3.44443570890408     -1.17461286463540
  N   1.84638004970316      1.55258827017327      0.02777856870995
  C   1.57347899309233      0.28572174252511      0.11433270290604
  C   2.55451165356026     -0.70671149397682      0.30047758243956
  C   3.92058797266635     -0.53889361969840      0.51279472443468
  N   5.07034895003998     -0.47234414235986      0.68634433089233
  C   1.93165784845744     -1.93883920451894     -0.04066540289725
  N   2.54349257793569     -3.11910376538213     -0.08942270214289
  N   0.62220963468653     -1.81552876851959     -0.33200678147274
  C   0.29818759799054     -0.50612941344536     -0.15480812865248
  C   -1.00968400012640     -0.08400817404075     -0.07689043376450
  C   -2.11324872425521     -1.01396121778884     -0.18633451505292
  N   -2.02482988924402     -2.28018273696981     -0.59676377836358
  H   -3.64904488097146      1.66039550641005      1.03332834165209
  H   -1.78111428461061      3.07089883308338      1.26779623761750
  H   2.55578109544316      3.27857969689351     -1.48689182684388
  H   1.22903897779740      4.36691265509362     -1.26411646012888
  H   3.52085528285063     -3.20056144473954      0.12640700799138
  H   2.04246135756480     -3.93143638053531     -0.39978453739805
  H   -2.81682436262040     -2.89032325660782     -0.48624193259082
  H   -1.08616026022540     -2.66151826383750     -0.66326096450854
