33
Coordinates from ORCA-job ./opt_b97-3c_parallel
  N   -3.73900188350924      1.02026441304575      1.57156966876847
  C   -2.78308111668644      1.01795950814026      0.90543098375643
  C   -1.60027098610459      1.13406300572376      0.14184907774789
  C   -1.42673840764838      2.40794201508810     -0.48247396290048
  N   -2.49945281185426      3.23586188975388     -0.43709110606189
  C   -0.33042628716729      2.91472947235924     -1.20652842424202
  C   1.02267146619733      2.67667090346483     -1.14355561518990
  C   1.85219408551251      1.79495925432494     -0.46264335530123
  C   3.22704281014002      2.03714101342728     -0.38002803432296
  C   3.86032941473671      1.06442543666645      0.39638344948161
  C   2.91302562548676      0.11637702512244      0.77591448238810
  N   3.11729809152264     -0.86814555246115      1.69011628985735
  C   1.63406138845642      0.48396874187886      0.19195010124956
  C   0.57817008729884     -0.38235759841514      0.01789637112890
  C   0.69446406358808     -1.81429374921456      0.00036198121695
  C   1.82419858904134     -2.59593307774069     -0.23664847230137
  N   2.71974069432108     -3.32201728466859     -0.41103397129996
  C   -0.59305069577353     -2.37102477566737     -0.07255236142316
  N   -0.89664073687382     -3.65955442045506     -0.20188495276528
  C   -1.55202544388934     -1.31015666962203     -0.06194717672674
  C   -2.91589696992751     -1.58004330923731     -0.20638675984366
  N   -4.01289488674536     -1.93351263314040     -0.36875845461186
  C   -0.88767777468148     -0.07705433242034     -0.05265220677388
  H   -2.40324930172744      4.19482845302161     -0.71113538439444
  H   -3.34318275347620      2.97265595558201      0.04161738102062
  H   -0.58875240798950      3.78271052970459     -1.80174660195048
  H   1.59240318906022      3.41497870156435     -1.69979849004993
  H   3.71475396056309      2.88663659185519     -0.83399604907467
  H   4.89590943690799      1.06683824856436      0.69856036141079
  H   4.05328318702520     -1.22521683482718      1.77631158292433
  H   2.41549602158993     -1.57945306582918      1.78176096740631
  H   -1.85053480755560     -3.94705935593670     -0.33866752267330
  H   -0.17208556955090     -4.34936950344172     -0.30044180155876
