28
Coordinates from ORCA-job ./opt_b97-3c_parallel
  N   -5.26000415638580      0.34363030597727     -0.49656603337354
  C   -4.12269282405113      0.40147679523197     -0.27491829515185
  C   -2.73851075703519      0.65224035035446     -0.01730519896161
  C   -2.49443598881161      2.04726369448418      0.20415159381057
  C   -1.46508095559489      2.76083766381712      0.73007343815652
  C   -0.11579445988472      2.49274988717294      1.07442572665824
  C   0.75527615604535      1.50501337016881      0.71906786082015
  C   2.15600317777948      1.79609420517825      0.80503292130223
  C   2.83768787257014      0.87434877534722      0.05830876411154
  C   4.20762633969975      0.86464845312725     -0.24224455960158
  N   5.33387618075374      0.80582647731323     -0.52209234350105
  C   1.89573291572601     -0.11624820961364     -0.44518065819868
  N   2.28727621395891     -1.06621324756422     -1.31466005653705
  C   0.61663410543862      0.20808894456887      0.02219234590473
  C   -0.47561437824338     -0.69542290287396      0.08680023781357
  C   -0.36867504149774     -2.08999649291538      0.13876699862644
  C   0.76185152483225     -2.87145221451410      0.38701718942061
  N   1.69097815448977     -3.54476896250130      0.58378468424550
  C   -1.70825456054175     -2.62012117605719      0.07950837055921
  N   -2.61529249443726     -1.68898696996937      0.00324168254408
  C   -1.94319827199278     -0.47058903030810      0.03871722028210
  H   -3.37674356572077      2.64323189114058      0.01220316569007
  H   -1.72422085842458      3.79964262207367      0.90032691435355
  H   0.35802550260199      3.32577806968021      1.58061969132210
  H   2.57633480490422      2.67383868737799      1.26611045810963
  H   1.65749542460183     -1.81286448166545     -1.54326178790241
  H   3.25865524218129     -1.32922050632480     -1.32952124273532
  H   -1.96656932786475     -3.66856777920663      0.12680214013288
