29
Coordinates from ORCA-job ./opt_b97-3c_parallel
  N   -4.36903355780763     -1.29371356944565      0.27078927758227
  C   -3.35407892700496     -0.72331885495789      0.20574468953720
  C   -2.15353178251763     -0.02187573492769      0.13034248122930
  C   -0.83752256524768     -0.58022243674407      0.09695585010976
  C   -0.71958216727761     -1.94698831731884      0.15980622196231
  C   0.27124161637288     -2.94092501662387     -0.00775032688578
  N   -0.22713133423205     -4.21030846480593      0.04912222062314
  C   1.65702874841880     -2.86458914814828     -0.21463761529383
  C   2.56379879896464     -1.83387965681397     -0.18429577031960
  C   2.53368090458358     -0.45708584666813     -0.00459750515460
  C   3.74979792522977      0.24035260745385      0.10172085768071
  N   3.58659325880611      1.55746324458782      0.31112547833832
  C   2.26262025274164      1.77431226917167      0.30021996742836
  C   1.50630714593562      0.59266571929901      0.10853435948148
  C   0.11494464480611      0.57659601028928     -0.00134430282116
  C   -0.68620025940410      1.73138623787684     -0.11766445801668
  C   -0.34345260214171      3.06748080791908     -0.32620584319395
  N   -0.20250939205335      4.20939009034050     -0.51064348394728
  C   -2.06389125131562      1.36945158807717     -0.02457559561092
  N   -3.07911565334137      2.22561284674952     -0.09709264357682
  H   -1.69525762860240     -2.40113266243748      0.30186436731053
  H   -1.21672389815028     -4.37265491768380      0.02659313176269
  H   0.35969249906839     -4.99393086600144     -0.16745188324750
  H   2.11844658121394     -3.83409874377085     -0.36684041293575
  H   3.58168288918537     -2.19076105038348     -0.31183002830552
  H   4.73535736210783     -0.20055844574628      0.04894180925042
  H   1.88033295979487      2.76664553171284      0.46567807944437
  H   -2.91230435740033      3.20801482275758     -0.23186841251428
  H   -4.02951818023293      1.90533129674238     -0.04112415331702
