31
Coordinates from ORCA-job ./opt_b97-3c_parallel
  N   -4.61072525416750     -1.29289680229113     -1.67441293756379
  C   -3.63452318773675     -0.95326697755849     -1.13637499043198
  C   -2.46910837123257     -0.57213488531490     -0.44513488124416
  C   -2.01207550200450      0.71614283671857     -0.57586228425170
  C   -0.90655070678821      1.37227390609605     -0.01631574725894
  C   -0.83822084478052      2.79262017891958      0.03836710953126
  N   -1.83336825301691      3.65567943384737     -0.21930642309932
  N   0.38702388834618      3.27338160450762      0.35554196578402
  C   1.17735340733725      2.20543706093076      0.45393985766146
  N   2.43719707332198      2.34932305481683      0.86987458143393
  C   0.44971534453450      0.93842708639215      0.23723147632594
  C   0.99806783992898     -0.32124501621871      0.16304137124869
  C   2.33236160766996     -0.73363623075172     -0.15369454546289
  C   3.39975594048893     -0.01407711552094     -0.67104683679383
  N   4.32911214016972      0.56777506468246     -1.07613254996849
  C   2.30398839324428     -2.14534129561270     -0.13106322435781
  N   3.29598768853549     -2.97299615056089     -0.46111891158499
  N   1.10189257802019     -2.65045316368340      0.26213583846640
  C   0.29284791223405     -1.61180274965789      0.43262392727515
  N   -0.88673004386343     -1.80171382720820      1.03928867249242
  C   -2.06848353973716     -1.43576638690068      0.69277593254795
  N   -3.09641977090380     -1.83265697076979      1.47406243772092
  H   -2.64042039867409      1.34256549858390     -1.20526557048946
  H   -2.79031335016523      3.36074201755870     -0.18060278394890
  H   -1.64571220359021      4.63311068209519     -0.08452762358349
  H   3.12627243774025      1.63450664009016      0.71489034795979
  H   2.78185501273883      3.29338015558548      0.91832193440024
  H   3.10607756808746     -3.95735398681216     -0.51425079288917
  H   4.16372361212544     -2.62279559180458     -0.82483345848125
  H   -4.04435641046568     -1.67996204965779      1.18265811570899
  H   -2.91980677889561     -2.53982041970210      2.16540283615358
