30
Coordinates from ORCA-job ./opt_b97-3c_parallel
  N   1.32596197695066     -3.98410838138335     -1.50843906855785
  C   1.13070423796836     -2.95655393001712     -1.00265446606456
  C   0.87190921930626     -1.70693981918691     -0.37099309715854
  C   1.91811292265020     -0.82711426766993     -0.39275734218800
  C   2.10590897149062      0.46584216769341      0.17021285690574
  C   3.44541949683008      0.72604406895404      0.54540027001083
  N   4.53244450463624      0.98321224404259      0.87356444550182
  C   1.22664920340314      1.55326050093728      0.27314598671568
  N   1.74280283247152      2.73313664308202      0.71789800236972
  C   -0.12583329302472      1.64581467572985     -0.20681095655332
  C   -0.64813244699893      2.85826835217265     -0.63223780671920
  C   -2.04935515216822      2.79123008551369     -0.81765487383242
  C   -2.46778053897602      1.54056800460324     -0.44426430572704
  N   -3.73160842105963      1.04436920850817     -0.53112782327751
  C   -1.27184726316165      0.74864289486864     -0.03268387215289
  C   -1.36314007832483     -0.52598567809419      0.44254056586007
  C   -2.56029436369608     -1.08901881533304      1.04709567056640
  C   -2.32999502612878     -2.40435158880892      1.29871247962923
  C   -1.03060097549710     -2.76201148946167      0.79363568083498
  C   -0.38888578382844     -1.64457602044991      0.33273595563292
  H   2.82445963790604     -1.23494599529798     -0.82438281076730
  H   1.11219777196783      3.41838351801589      1.08894049680693
  H   2.68695500739152      2.76126632826459      1.06533253884106
  H   -0.05612792393712      3.73989233784629     -0.82506548897819
  H   -2.66568076086217      3.56945475802594     -1.23868518392520
  H   -3.83577787182596      0.04450897098575     -0.57407372798821
  H   -4.37035756209869      1.55030637176103     -1.12075692948300
  H   -3.38553784915658     -0.50472743073718      1.41711731858835
  H   -2.99179491359317     -3.07545436308524      1.82490444803786
  H   -0.63224680603445     -3.76314511627953      0.75640410707152
