26
Coordinates from ORCA-job ./opt_b97-3c_parallel
  N   -5.10297082272072      0.99124567423208      0.08686874026801
  C   -3.95143524166874      0.83730161990995      0.05629092023267
  C   -2.54368139493171      0.63965222055457      0.01426682981138
  C   -1.79694124125443      1.78203700746185      0.31726836632379
  N   -0.54591218502756      2.12652614734371      0.13107141213770
  C   0.61298244184552      1.55884763826933     -0.04241370113712
  N   1.68725033151555      2.31073310812805     -0.33605599197080
  C   2.73409701826673      1.47549536488560     -0.18169959851998
  N   3.98271893913602      1.90228388994916     -0.36434648787287
  N   2.47014619782019      0.19148049293658      0.16323950190437
  C   1.11921319707988      0.12418430658025      0.17124587016294
  C   0.43996569695454     -1.07377518787218      0.17231191650409
  C   1.13071790754351     -2.33233568101682      0.20740082593998
  N   2.44188581535278     -2.48459363243000      0.44184367732194
  C   0.20495155890007     -3.37328857608830     -0.03692927950148
  C   -1.03251201707932     -2.81594912287748     -0.24891938088644
  C   -0.98206783904976     -1.40137075376372     -0.11438636983566
  C   -2.14970602910041     -0.69668407053029     -0.23416303397806
  H   -2.39621901518827      2.59887371538143      0.71447943407316
  H   4.75723984648583      1.30924948616753     -0.13188843439219
  H   4.14148634109252      2.87345533940516     -0.56046586407856
  H   2.87585054404936     -3.36909358874437      0.24771557318172
  H   2.99625175437464     -1.63254792638991      0.40005864116523
  H   0.44553829451242     -4.42526253558348     -0.05134587136673
  H   -1.93896018247343     -3.35964024096652     -0.46550220052576
  H   -2.99362755173506     -1.33349266124243     -0.47239752096126
