23
Coordinates from ORCA-job ./opt_b97-3c_parallel
  N   -0.50547331972306      2.97265292082507     -1.26991373133571
  C   -0.32089010524313      2.13313401025092     -0.23749985847012
  N   0.80484433931925      2.25131164509503      0.44306895514186
  C   1.60767198844410      1.28861901672556      0.84480478187220
  C   1.69161073285941     -0.04562439159478      0.47422542588132
  C   2.92508415625804     -0.73837983964928      0.55926275566023
  N   2.87671310403529     -1.93567899151978     -0.02992697345317
  C   1.59543522162421     -2.09882793402217     -0.44661703759147
  C   0.78211784895536     -0.99071858740103     -0.18409991096280
  C   -0.63155184650589     -1.01265146202936     -0.20558949642737
  C   -1.44803999955949     -2.10437716585640     -0.34048579687248
  C   -2.79139619753333     -1.75197604198338      0.02998261023155
  C   -2.87212856042175     -0.44288602864197      0.40691921752911
  C   -1.58066864366689      0.13689952045211      0.17285754711844
  N   -1.41143193935331      1.41035360657049      0.10066539921142
  H   -1.43099102518920      3.10844989342181     -1.63520599787994
  H   0.19527137339619      3.66952368852448     -1.44958617918365
  H   2.41791124095618      1.64424415754559      1.47645925243390
  H   3.84615206710213     -0.34693123451131      0.96778067880334
  H   1.28636933718359     -3.03219010434719     -0.89225438541694
  H   -1.12548155660253     -3.10939936970391     -0.55567634288677
  H   -3.62028931048318     -2.44555530241305      0.01176424787974
  H   -3.75052038555195      0.12530206166261      0.65912202271742
