27
Coordinates from ORCA-job ./opt_b97-3c_parallel
  N   -2.54453611455784      4.22119874939154      0.01043298954990
  C   -1.92739592013272      3.23685279553559      0.00676999226224
  C   -1.16811248920303      2.02967591995869      0.00224611857078
  C   0.25313614621013      2.25667640962143     -0.00395266113790
  C   1.35968431975214      1.47806031628767     -0.00559077725713
  C   1.65241892433271      0.08409719662538     -0.00091194424246
  C   2.97430254300539     -0.34162058252646      0.00038859509316
  C   4.10656873504457      0.48366973444092     -0.00183597593082
  N   5.05948842505073      1.15061107459240     -0.00362525566184
  C   3.03871059856909     -1.79453352043421      0.00445283636444
  C   1.78031370994713     -2.26885268696141      0.00497486604404
  C   0.83841718844159     -1.14680546115223      0.00164799387859
  C   -0.51624081240603     -1.34444693408849      0.00025118679657
  C   -1.06855945138423     -2.71082988377809     -0.00108163656133
  N   -2.36071722612904     -2.74034649302288     -0.00236412646827
  C   -2.76830300023938     -1.39933300594953     -0.00108684722077
  N   -4.08790935065231     -1.18616364221933     -0.00369647686048
  C   -1.69644380749258     -0.49628457602956     -0.00041394513564
  C   -1.93411357224231      0.89393025081571      0.00331312841886
  H   0.48503859448074      3.31411170673846     -0.00762676875570
  H   2.27148797048032      2.06386577138865     -0.01036083561486
  H   3.95408568761666     -2.36253242605989      0.00664777220568
  H   1.51232749411805     -3.30945677682979      0.00819509976157
  H   -0.49973669893462     -3.62585888508012     -0.00185642588611
  H   -4.49492801200846     -0.27066797312671      0.01116742164618
  H   -4.69945286422892     -1.98188250081323      0.00874630300549
  H   -2.99159066693776      1.13193142897551      0.00666485623589
