30
Coordinates from ORCA-job ./opt_b97-3c_parallel
  N   5.61382125170640     -1.85093414438397      0.37929048379274
  C   4.55700132978852     -1.39505050537338      0.21471667910831
  C   3.32228746651411     -0.76269390822377      0.01052920182964
  C   2.06404479793368     -1.34050191147693      0.00589642318271
  C   1.08181568846533     -0.33745081977237     -0.16810735934828
  C   -0.25730247237292     -0.70018848668464     -0.18854976801134
  N   -0.55147993708690     -2.03435620472996     -0.19194621682300
  C   -1.86465817085379     -2.14683786156289     -0.10172826003589
  N   -2.50125736884898     -3.31402368436103     -0.10258582412242
  C   -2.52653763234273     -0.85979591962076     -0.01590037246217
  C   -3.92043171751843     -0.77772108910496     -0.00471771621229
  N   -5.07757430573090     -0.90312290485811     -0.03069204824219
  C   -1.52448714184653      0.10116207300776     -0.08167562837906
  C   -1.77990787909974      1.49829295046125      0.00846211218174
  C   -3.04533685268569      1.85977256806246      0.55302453376496
  N   -4.03419917049452      2.22231913996090      1.04325104930707
  C   -1.06743997034532      2.61293497857499     -0.43366472602020
  C   0.21879838894374      2.87849555791333     -0.88331238714306
  C   1.41964212096640      2.20128866224733     -0.78009034376063
  C   1.80880548351995      0.94640507429191     -0.33902959550457
  C   3.18229057356349      0.64480811544434     -0.19949904177182
  N   4.23418466429093      1.49586045562224     -0.29715568177422
  H   1.84692060713852     -2.38190394021185      0.15357518294573
  H   -1.97726502511617     -4.16598796298406     -0.19365432263839
  H   -3.50448719700203     -3.35571456494713     -0.06166603728852
  H   -1.68278727832539      3.50515876951985     -0.42141211177669
  H   0.32616760010088      3.88541754563387     -1.26617941986700
  H   2.25696166780222      2.81413366637244     -1.10085214278176
  H   5.14239002030714      1.13082779620653     -0.06436014118412
  H   4.10164939692977      2.45684289197278     -0.03905560686255
