26
Coordinates from ORCA-job ./opt_b97-3c_parallel
  N   -4.71171838405166      1.42749825778803      1.15513089376283
  C   -3.67070857138997      1.13810664898110      0.72726777335411
  C   -2.39670113672514      0.81731122922425      0.19265186844731
  C   -1.81626811345132      1.87529450457309     -0.63797530868733
  N   -0.62178725499787      2.26266527414437     -0.84005891865567
  C   0.57585594078444      1.86146557778374     -0.31228254629361
  C   1.56006954106037      2.78393774949248     -0.06123680838892
  C   2.76715858797070      2.11717763356960      0.30872519271786
  C   2.58644519767612      0.76139255895813      0.21739063732000
  C   3.57289597367112     -0.18302459228063      0.52012055879275
  N   4.40541801178883     -0.95682635460722      0.77092996217980
  C   1.17251171122859      0.52153194507201     -0.12801573969404
  C   0.57731875992112     -0.70530427527905     -0.20254565216266
  C   1.33472185037896     -1.96758584223307     -0.35012069150323
  N   0.57049752801145     -3.00937143115426     -0.41453644334851
  C   -0.73559821061233     -2.52574884443226     -0.23567779770854
  N   -1.71237271788469     -3.42799521754359     -0.18532662470254
  C   -0.79943710846307     -1.13005671871697     -0.12950721684283
  C   -1.97480291993090     -0.47273207306951      0.30761667681235
  H   -2.57458001163016      2.45007336940205     -1.16995333453557
  H   1.43529946528347      3.84865583418055     -0.16956663569793
  H   3.68711948548522      2.59793325087744      0.59956357703215
  H   2.40175692797387     -2.05001431860228     -0.47286179835801
  H   -2.68178619795852     -3.17167086127657     -0.16426572840856
  H   -1.47293606027815     -4.40175855630835     -0.24745141817771
  H   -2.68756241985963     -1.12355018154382      0.80733342814652
