33
Coordinates from ORCA-job ./opt_b97-3c_parallel
  N   -0.93926465666143      4.97933328474140      0.55359630921427
  C   -0.64889483697924      3.87908190213211      0.30995521467679
  C   -0.35320393965616      2.51949697118964      0.03817091932691
  C   0.85912557624234      2.34098284117955     -0.65709453823633
  C   1.76425962548585      1.32197386882703     -0.82134570545981
  C   1.89533705631749      0.04807935738281     -0.26360072065218
  C   3.13463363374748     -0.59603824222605     -0.20673290250439
  C   4.37018169818818     -0.12128991350743     -0.64390388240620
  N   5.42948817380670      0.21733479063581     -0.99216227520041
  C   2.96427584936319     -1.85744566699981      0.46911724570601
  N   3.97788768825757     -2.68432839026869      0.74372020831065
  C   1.61293437912791     -2.02472230698122      0.76812906079593
  C   0.90228444964533     -0.90772906315424      0.31087167020999
  C   -0.49126044876463     -0.87328716435708      0.19219297301791
  C   -1.21441512780135     -2.09171537045956      0.12932115680137
  C   -2.55453263913090     -1.81506501589808     -0.07647991678859
  C   -3.59554333257961     -2.71977238742873     -0.32003029657735
  N   -4.50548740188609     -3.41567008590801     -0.52367884300583
  C   -2.72432801606421     -0.39346636214870     -0.08326934688193
  N   -3.96437678831061      0.21318446206988     -0.18772958704382
  C   -1.47239690021185      0.21383252184805      0.08102962045339
  C   -1.36140352980614      1.60419915988875      0.42923303476487
  N   -2.39494596716615      2.11075319600414      1.13330962426284
  H   1.21956727192919      3.27571227871125     -1.07078843460032
  H   2.64979748460246      1.63288224139748     -1.36378862459958
  H   4.92006975358888     -2.44358944157803      0.49029689101308
  H   3.83042596262045     -3.54902377207775      1.22941102879841
  H   1.18913395336504     -2.87473934304278      1.27463763613108
  H   -0.77528238816089     -3.07226725155828      0.09362086932280
  H   -3.99040325672408      1.03348828677433     -0.77340845677016
  H   -4.70684573615531     -0.42568300610694     -0.43003994560316
  H   -2.47965730901226      3.10146737104626      1.28855309818812
  H   -3.19270352811673      1.53348302647309      1.33967032673510
