35
Coordinates from ORCA-job ./opt_b97-3c_parallel
  N   5.29771455086272     -0.71431920240452      1.52605376148426
  C   4.23150783623549     -0.75745321152729      1.05926269910302
  C   2.94860801001811     -0.74259869428959      0.50599960062343
  C   2.22373094843636     -1.83840022009506     -0.02686832555489
  C   0.95381857043200     -1.43837625561090     -0.39653259515841
  C   0.12601326431994     -2.25145467208078     -1.25534061442464
  N   0.84031922048355     -3.04617434887703     -2.11743307853312
  C   -1.23663895975355     -2.40299474944857     -1.23870083080544
  C   -2.17733094541181     -2.01980377956260     -0.24913619941576
  N   -3.18979573352537     -2.91011477311638     -0.07182491637391
  C   -2.25847492191189     -0.80065806868721      0.45453674968197
  C   -3.29660268195487     -0.72072852234711      1.40825849058102
  N   -4.16624661636454     -0.69403076146194      2.18328240005547
  C   -1.67267359502917      0.45580589896501      0.10185511867444
  C   -2.36160173937321      1.63930306370260      0.26329237954273
  C   -1.52753259214697      2.72565905941588     -0.09289083342132
  N   -1.89520915193170      4.00669689906875     -0.16081511697101
  C   -0.23721802258548      2.23006790310017     -0.40535544118787
  C   0.75797596454506      3.03316170030412     -0.94436254031880
  N   1.58506036375525      3.75091314931670     -1.35160561419903
  C   -0.25803994706485      0.81383190276295     -0.25204417273000
  C   0.84216410186069     -0.01096311478550     -0.13535542342850
  C   2.15064107904280      0.40410480688345      0.40333022912099
  N   2.48498162104608      1.59353930349183      0.94779003062488
  H   2.62510101421768     -2.83206913821898     -0.14373239614643
  H   0.33373420059258     -3.59678711852545     -2.78906513696728
  H   1.72760596853491     -2.69823087124303     -2.43497947048075
  H   -1.63891682504288     -3.09838803811573     -1.96807894607017
  H   -3.03306964310103     -3.87329126227209     -0.30337798454560
  H   -3.91274378669441     -2.72325977902271      0.60249652625421
  H   -3.38788384043755      1.72420165339191      0.58046148388108
  H   -2.83858855849660      4.28780067361580      0.03039921910009
  H   -1.25024499327779      4.71085344003193     -0.47497059127922
  H   3.41216934518806      1.64747368997938      1.33928311721074
  H   2.17740634793172      2.44911923506273      0.51767692337568
