30
Coordinates from ORCA-job ./opt_b97-3c_parallel
  N   1.68980228429440     -3.78184053274401      1.22468965626717
  C   1.14450541269124     -2.82929239454796      0.84476473103599
  C   0.49433633475981     -1.65060647822995      0.37323050057465
  C   -0.87126312468729     -1.80723998950711      0.23078230273523
  C   -1.93605585102677     -1.03335785772807     -0.26390106647128
  C   -3.04363428504201     -1.82445883848078     -0.66545090956945
  N   -3.97442667020727     -2.42703100703176     -1.01790101148525
  C   -2.15317726171493      0.36484648938217     -0.34011702549494
  N   -3.34047895324368      0.76372344610837     -0.85410791818001
  C   -1.35435103057515      1.41485676763944      0.20803869084681
  C   -1.94820408574816      2.60499768686140      0.63143649040678
  C   -0.94686354775824      3.55361906704597      0.93403778078508
  C   0.27722721548965      3.00190257007827      0.64055861785517
  C   0.09724427463663      1.65020685834810      0.21266783318860
  C   1.19242845232667      0.87277997810449     -0.15410956826266
  C   2.43375841362471      1.41621891128080     -0.50502750611945
  C   3.36655856937863      0.38100403767952     -0.58416434910862
  N   4.66010767093623      0.48283337312974     -0.91997701777901
  C   2.72576077454687     -0.85610594565605     -0.24719585723508
  C   1.39442297713192     -0.61857121498735     -0.02689291882087
  H   -1.18762872177055     -2.81872299330934      0.45355655156032
  H   -3.47687888911715      1.72925749245902     -1.08137735916990
  H   -4.01633190090081      0.09911264033687     -1.18897672343365
  H   -3.00634701745384      2.75360157776035      0.77922736816254
  H   -1.11995172833262      4.52877909373960      1.36241819977559
  H   1.23728497846956      3.45567744763540      0.81854766655272
  H   2.62338138858148      2.45252248642787     -0.72488105823222
  H   5.24339847181358     -0.32999739028809     -0.98806172976142
  H   5.06565929024600      1.36487286658135     -1.17177369478179
  H   3.21779808125049     -1.81254156168761     -0.18151578884115
