33
Coordinates from ORCA-job ./opt_b97-3c_parallel
  N   -4.37981586610229      2.12196205801232      0.96133320124400
  C   -3.52531246170668      1.37239354690965      0.69946366746925
  C   -2.52264851877308      0.45839251759270      0.38744306499137
  C   -1.13295066145894      0.73649751246551      0.25306741373078
  C   -0.65311325686711      2.00573454705658      0.47250424343939
  C   0.46993254656928      2.71472404321103     -0.00212635170418
  N   0.32187658686208      4.07477731216215      0.09837820847682
  C   1.66711563137071      2.30083572536720     -0.59816488373908
  C   2.43176266787556      1.14250259327350     -0.50445365633081
  N   3.71545549488009      1.27090196463020     -0.97869191027599
  C   2.11641158319602     -0.12903284765915      0.04979050265877
  C   3.08662362693938     -1.08327299411907      0.41600070949236
  N   4.44814097526579     -0.95069731812310      0.53989078471925
  N   2.55079176094702     -2.31969987519696      0.64475733587758
  C   1.25979609364492     -2.21519332509323      0.38268115390606
  C   0.86489478007793     -0.88468397326422      0.03910735827107
  C   -0.47571724630175     -0.55100286818330     -0.10424682220599
  C   -1.51927530625941     -1.48671928540774     -0.33359883990906
  C   -1.46313327357759     -2.79682691142954     -0.80399191250019
  N   -1.53018905546733     -3.89114985465920     -1.20200316681545
  C   -2.76029825205734     -0.87422572430479     -0.01657855343858
  N   -3.95364222222524     -1.46079880289561     -0.11183101593813
  H   -1.40071556435245      2.65968375564198      0.90937425049309
  H   1.01573806543064      4.67622410541741     -0.30535227192103
  H   -0.60045030445722      4.46476359223510      0.17197318872712
  H   2.18097549487735      3.10946781573967     -1.10914541926710
  H   4.19051364926540      0.44089039415714     -1.29040778739941
  H   3.94763232284528      2.10788011887348     -1.48208780346723
  H   4.78359634159231     -0.05634259389200      0.85808886772326
  H   4.86088531763278     -1.73226763101456      1.02424465289939
  H   0.59904053973779     -3.05078389257190      0.54219469170652
  H   -4.79481855530304     -0.95499238385652      0.09965546626709
  H   -4.03387422399739     -2.40344859247516     -0.45052349878055
