28
Coordinates from ORCA-job ./opt_b97-3c_parallel
  N   4.72485163890906      0.61939730408582     -0.02858807245596
  C   3.63134822428771      0.22847353536210     -0.05860026873172
  C   2.34076130134537     -0.36177588702381     -0.07212733048891
  C   2.37537303746922     -1.77610528144409      0.16968296530849
  N   1.60932741779037     -2.72205438578990     -0.23425190228514
  C   0.40781429401760     -2.80170011964952     -0.80743082079511
  C   -0.73535005872695     -2.13139565682596     -0.46991370230975
  C   -2.00865638949351     -2.75117193277907     -0.58824782789854
  C   -2.92001335297430     -2.07329629073550      0.18424251288490
  C   -2.28494267203281     -0.93755217870077      0.75534388466707
  N   -2.86941964144416     -0.13541162490412      1.67268625382282
  C   -0.93847819326602     -0.87522004828310      0.28849847344388
  C   -0.20939276580122      0.30161366386135      0.09468677518238
  C   -0.71558715571040      1.61868531941527      0.07705191465132
  C   -2.02440114191336      2.08991819526747      0.05785130499726
  N   -3.08782131510848      2.56959111635394      0.03764381789207
  C   0.38450089423656      2.47488523512207     -0.27000025541913
  N   0.30651192421463      3.79164416203642     -0.44921724424119
  N   1.52732750566651      1.81065906282614     -0.43005365103864
  C   1.26118007474082      0.50322851730325     -0.21069778181015
  H   3.25325685564903     -2.10993715858962      0.71822702694073
  H   0.29874010059628     -3.66183181227748     -1.46249622763880
  H   -2.18259001946479     -3.68315273331466     -1.10306996701444
  H   -3.94422028239886     -2.36065457204402      0.36622630883661
  H   -2.39116846404017      0.69987638868990      1.95698310063648
  H   -3.86945673937682     -0.03270486647255      1.64594551856198
  H   -0.57329733447120      4.27264696142466     -0.39695560922109
  H   1.11767194469992      4.28710651898580     -0.77451913947712
