30
Coordinates from ORCA-job ./opt_b97-3c_parallel
  N   4.81328440365787     -1.67420089434352     -0.93750014640757
  C   3.71522726948533     -1.48520731094352     -0.61269213709500
  C   2.34425001071981     -1.38552980894822     -0.22382490948884
  C   1.81166775737837     -2.62589208457944      0.17067676455870
  C   0.57433825112869     -3.11282395007676      0.51786254552920
  C   -0.72299592051413     -2.61096583646007      0.40754403783280
  C   -1.28922333780963     -1.40172440656533      0.08946753408309
  C   -2.70599120539796     -1.32166447949026     -0.07315490753370
  N   -3.59038745000715     -2.35261990552023     -0.08216823797254
  C   -3.06578503020459      0.03836966962018     -0.17730170129681
  C   -4.37984437188967      0.47713793323235     -0.38649139870171
  N   -5.49249488617833      0.76507785609076     -0.56398750532279
  C   -1.90604649037029      0.82079868518241     -0.09480770428353
  C   -0.77881571649867      0.00485389428460      0.04082607556072
  C   0.51153381311619      0.54290718616751      0.11409183244528
  C   0.79626451602454      1.91829114605152      0.24501957190921
  C   -0.00639730567946      3.00827243888185      0.57273175686093
  N   -0.58177933314810      3.98577299924251      0.84104355644739
  C   2.18649873013484      2.07121137806587     -0.02699573422687
  N   2.86517634652351      3.21181390083122     -0.02763435521090
  N   2.79361242744532      0.89942285831974     -0.27996910408238
  C   1.86705061297971     -0.06422564704747     -0.14699148185952
  H   2.58092463616971     -3.38754113242501      0.21227310618953
  H   0.60271190154433     -4.14813702987447      0.83279354898659
  H   -1.46108613502389     -3.38094397757722      0.61082191666544
  H   -4.54469226203470     -2.12301395138499     -0.30559190153731
  H   -3.29213594207874     -3.23458118534798     -0.45826949204927
  H   -1.91017754180798      1.89077263076762     -0.18611645183360
  H   3.85234959065227      3.19513036847145     -0.21488300142921
  H   2.41963732348262      4.08455760887527      0.19449586356263
