29
Coordinates from ORCA-job ./opt_b97-3c_parallel
  N   -5.42063900259816     -0.11242857668502      0.34866492833093
  C   -4.29252407079746     -0.35535806608874      0.21442326190938
  C   -2.93504476903983     -0.65952842116203      0.04438502486281
  C   -2.41257282453453     -1.91013897126498     -0.38207716101464
  C   -1.03084169054812     -1.89805222435390     -0.32520249412167
  C   -0.23505076410651     -2.93627848867046     -0.81404224181732
  N   0.45111486047943     -3.80166936378930     -1.18523832702145
  C   -0.60862697857964     -0.56260733521118      0.05708910881210
  C   0.65324321773367     -0.03098351863167      0.10644738741235
  C   1.93240319598461     -0.76851996110464      0.36963920170134
  N   2.05084005345065     -2.01196422487001      0.84752633887167
  C   2.97307191145437      0.15177204995212      0.29154239768935
  C   4.31184208952217     -0.14877175673013      0.55801286626749
  N   5.41149965485088     -0.45181583498438      0.78906594909884
  C   2.41807803546472      1.41617909409477     -0.06197568461263
  C   1.04617607091162      1.34923998682674     -0.12726089635768
  C   0.23763509104317      2.42267635021739     -0.72105010110895
  N   0.75240397847960      2.98470118496169     -1.83884774484702
  N   -0.82513338969140      2.95639746741061     -0.21017423164708
  C   -1.47513654651606      2.48665715911469      0.86335069544395
  N   -2.00630159883064      1.32486616813841      1.03402330114471
  C   -1.86980601529970      0.19276137825012      0.33656394619333
  H   -3.00826724610067     -2.74070353600337     -0.72421443763562
  H   2.98395452758572     -2.33987091376085      1.04331845403958
  H   1.39574167136206     -2.73320868995035      0.59278319650333
  H   3.00743664484127      2.29340595221774     -0.27883078234952
  H   0.22055223074176      3.70574929517192     -2.29604759586293
  H   1.43666051481415      2.48854947041115     -2.37814038065826
  H   -1.69470779307624      3.22142753679364      1.63404084517263
