30
Coordinates from ORCA-job ./opt_b97-3c_parallel
  N   3.63081730470418     -3.88656870336976      0.35960301892329
  C   2.80506441939036     -3.07454302785372      0.25135080892060
  C   1.80917176388980     -2.06904309674159      0.11635108751432
  C   0.49816802296335     -2.56181455666823     -0.00531379190029
  C   -0.76408504249175     -2.02764075772477     -0.12015867913624
  C   -1.32942650547079     -0.74769054496952     -0.06381971527747
  C   -2.71225894095219     -0.57657567619895     -0.10110504286393
  C   -3.71202646673050     -1.54057257630218     -0.20477820655035
  N   -4.59601077118235     -2.29512334447931     -0.28871551922788
  C   -2.97063924868971      0.83906375272375      0.03931977046883
  N   -4.19329284551164      1.37181083838810      0.06121957188668
  N   -1.86224986292997      1.54328796210958      0.13956188322016
  C   -0.79638820338488      0.65094475700580      0.06207661048804
  C   0.48049177628445      1.12833342885459      0.05789374525099
  C   0.78003634308599      2.56061826595129      0.08748736571123
  N   -0.11045052946133      3.53792248821648      0.19316411868438
  N   2.08700127994166      2.81960282046113     -0.01906541242326
  C   2.71038651008691      1.62740907110754     -0.09651239849222
  N   4.05467317135750      1.60986489846782     -0.18200404347018
  C   1.82461391870497      0.50689373501972     -0.03370677097470
  C   2.32891779764275     -0.76409282819660      0.06131439345625
  H   0.47859447103249     -3.64534491813483     -0.01875857283314
  H   -1.52384717360300     -2.79320912786083     -0.22389435272070
  H   -5.00911434646705      0.78895945487075      0.01184594319660
  H   -4.31112815181110      2.35856351441224      0.20047897888179
  H   -1.08894236540829      3.26690926253818      0.21290693757421
  H   0.20361777120553      4.49110623667091      0.15229611725874
  H   4.50006093511338      2.49542587244663     -0.34516404838379
  H   4.53039931322565      0.80247142053541     -0.53841504057703
  H   3.41190403276436     -0.78296647347841      0.10889426719562
