29
Coordinates from ORCA-job ./opt_b97-3c_parallel
  N   4.62423850547763      2.23018609993101      0.49018870590981
  C   3.53003817270620      1.86326688349935      0.34291488283746
  C   2.20063372957301      1.39372817125461      0.15944043795199
  C   1.24898959469690      2.40338237463166      0.00765795319690
  C   -0.11923474972687      2.46604506010794     -0.17019352650888
  C   -1.17410723016618      1.55644130799387     -0.14349958316603
  N   -2.41934529396628      2.04711843534541     -0.24174315097104
  C   -3.22934709901504      0.96940673716153     -0.08626954393406
  N   -4.56036025839618      1.11088556330751     -0.13854406702884
  N   -2.63606152016157     -0.21380072887015      0.09670733682301
  C   -1.29160877972538      0.05970260323729      0.04321235302250
  C   -0.36300038953021     -0.94956159963227      0.09378789803268
  C   -0.75640708526976     -2.33546535622503      0.15532107183710
  N   -2.01334335733053     -2.77567177598728      0.30972480043468
  C   0.37685868044882     -3.14719284787517      0.02766945268470
  C   1.50460430175759     -2.34571298020196     -0.09540786968907
  N   2.77792429305599     -2.82475765445106     -0.19531090078910
  C   1.13259053261892     -0.95967664269110     -0.01374238194470
  C   2.11457348661430     -0.01976326240270      0.08151850802219
  H   1.69954305543394      3.38913380383647      0.02302784870074
  H   -0.49336932785055      3.47351762180266     -0.29930619404654
  H   -4.93754438961196      2.04058597831711     -0.13113962675098
  H   -5.14762499360649      0.35002396372457      0.14751967462878
  H   -2.73839295864815     -2.06443380826164      0.23409870546083
  H   -2.22290089011504     -3.74407138825515      0.15042109188706
  H   0.36897589051887     -4.22717468007322      0.01754807678712
  H   2.87071433935494     -3.79890739351378     -0.42199212981627
  H   3.46089100082405     -2.24931102254637     -0.65536170191405
  H   3.10683963333917     -0.45345750426381      0.12282172764234
