31
Coordinates from ORCA-job ./opt_b97-3c_parallel
  N   4.87080300201905     -0.77724433796193      1.68623632135988
  C   3.79925490508522     -0.94326985138984      1.26338244878008
  C   2.50006452391503     -1.07462020282291      0.76189450596781
  C   1.90793283279093     -2.22595080226744      0.31775273137746
  C   0.63008664178489     -1.92665898738419     -0.23095446508878
  C   -0.12736682008625     -2.86448889232954     -0.92737020405543
  N   -0.77966094264885     -3.64290834867375     -1.50099549996098
  C   0.36277527491813     -0.54086034328021     -0.09313543193897
  C   -0.89966797933676      0.05645436332445     -0.09061122726964
  C   -2.13013049034685     -0.62506015541095      0.17475208293928
  N   -2.36465354861868     -1.89907217466667      0.56305437665452
  C   -3.18659438174432      0.34216286450212      0.17229568202580
  C   -4.52663402772447      0.02356186858679      0.42655276087293
  N   -5.62228549117996     -0.29796637308034      0.64808997704771
  C   -2.66057221131711      1.58849329171971     -0.11522994833993
  C   -1.26465004377103      1.49435171360507     -0.25810993451817
  C   -0.58451768738721      2.64476603285997     -0.60128079779905
  C   0.73686141368597      3.05412349919987     -0.74536596194978
  C   1.93404685471311      2.52655333383229     -0.29989727404549
  N   3.04573961911083      3.30338494130850     -0.43388114630785
  C   2.21366593587492      1.28717601906796      0.36895922084467
  C   1.64894040458226      0.05733913156973      0.38029441655637
  H   2.35222949686506     -3.20785078738536      0.33182815067510
  H   -3.33121661229738     -2.12357047775129      0.73993388237044
  H   -1.85861622289054     -2.66219750232250      0.14553467148964
  H   -3.23105405891462      2.49648214807560     -0.22063558325022
  H   -1.27068477139060      3.45847632007910     -0.81383181812060
  H   0.82956714125184      4.04920055449114     -1.16699918993487
  H   3.00562790967830      4.14736903144584     -0.97552193363105
  H   3.95812221171880      2.91019265504024     -0.29316392390114
  H   3.19321282146068      1.29736785111768      0.83580629645002
