27
Coordinates from ORCA-job ./opt_b97-3c_parallel
  N   -1.11285630398212      3.44936018496411     -0.76418630393131
  C   -0.76302235460138      2.23914210789741     -0.22411608762973
  C   -1.77782890290097      1.61888933517865      0.55401019550540
  C   -2.15946229310665      0.29888343692002      0.65187548750835
  N   -3.33099766763415      0.05955335301895      1.33988874217197
  C   -1.60694899544173     -0.86804898643037      0.01936396917534
  C   -2.38028808188467     -1.99660310680458     -0.23145770120075
  C   -1.54576601830164     -3.06036665394311     -0.66200226162887
  C   -0.24165606179269     -2.63274716222201     -0.62739860477638
  C   -0.21733811660822     -1.25760538765432     -0.24430704222531
  C   0.97941335378840     -0.57615951750134     -0.09204671971026
  N   2.16647611093737     -1.20230982943300     -0.00298059706325
  C   3.05279352552016     -0.19384619641296      0.13336209734110
  N   4.35294683376316     -0.43180290956440      0.31076117803677
  N   2.58104647449693      1.07921130113375      0.08147155675784
  C   1.26405902965817      0.91910114726336     -0.07807947188468
  N   0.50568695547271      1.94855516117330     -0.37654518215523
  H   -2.06241781080734      3.58560248059654     -1.06026319867887
  H   -0.39830542809554      3.90483323925583     -1.30686444327012
  H   -2.44736395632366      2.33190619527875      1.02333701491306
  H   -3.69236291884672      0.81123949147919      1.90042481123213
  H   -3.41599424136343     -0.84688627024250      1.76392682226110
  H   -3.45541089047512     -2.04286917769834     -0.15558868314382
  H   -1.89068447813563     -4.03333800513342     -0.97771461854091
  H   0.64194777638050     -3.18927328981082     -0.88835609096607
  H   4.68035499049354     -1.37717527874749      0.37805876090808
  H   4.98156324939088      0.33354952083875      0.46584103499416
