27
Coordinates from ORCA-job ./opt_b97-3c_parallel
  N   4.85113443041011      0.47020815960526     -0.03291176085346
  C   3.69378069790703      0.35138852087542     -0.02803791009630
  C   2.27612271777361      0.26152893346875     -0.02254387008889
  C   1.82694563498290     -1.05927406622091     -0.01500045824114
  C   0.63500855509663     -1.76078203271500     -0.00781806156697
  C   0.69902063381281     -3.17600057583101     -0.00253193714636
  C   -0.58830887415285     -3.70097015586610      0.00378937857686
  C   -1.49698187259794     -2.64320124697970      0.00294715610323
  C   -0.79850309959029     -1.42187131948557     -0.00411102582702
  C   -1.47354210665224     -0.20129174275486     -0.00546295661749
  N   -2.81225498167262     -0.15954260618941      0.00063803276190
  C   -3.10786839009971      1.16274880681565     -0.00339571614204
  N   -4.37358293022151      1.58467913576818     -0.00185227641534
  N   -2.07316972931848      2.02300759379836     -0.01181264131859
  C   -0.98024306562793      1.22422254830524     -0.01361045095082
  C   0.24672064805398      1.85737803114347     -0.02196656500489
  C   1.60950057965893      1.52951304841272     -0.02624447654046
  N   2.42807912113964      2.61515682832694     -0.03519266924270
  H   2.66909347453093     -1.74256877461798     -0.01489172893093
  H   1.61991367526624     -3.73889487192625     -0.00365436489633
  H   -0.84300344535833     -4.74950070473548      0.00855348370326
  H   -2.57095528865933     -2.71534057446186      0.00697319597920
  H   -4.57384720401115      2.56673478150894      0.01087950210945
  H   -5.12139656139915      0.91761195257904      0.02036682925621
  H   0.08270687084549      2.92952433944522     -0.02630118126712
  H   3.42817328089891      2.52501446783929     -0.03880113681743
  H   2.04293249958323      3.53961818699196     -0.03789768462511
