28
Coordinates from ORCA-job ./opt_b97-3c_parallel
  N   3.91506675678033      0.73379228867736     -0.10451138133407
  C   2.57488591452002      0.38850919077549     -0.02943438359543
  C   1.75623834293680      1.50985093705225      0.27820128853914
  C   0.43965420888780      1.78600482437324      0.06199373417131
  N   0.04485343328307      3.10558915150635      0.10636780151575
  C   -1.21124892278258      3.07951748764848     -0.31144988224599
  N   -1.75038136175204      1.87710290808529     -0.59799487467521
  C   -0.75935450512965      0.97855004787381     -0.32178272037918
  C   -1.02599571341977     -0.37385595328824     -0.20030868906423
  C   -2.39342266790247     -0.85153551278746     -0.17752241346375
  N   -3.47249009943276     -0.13086063925892     -0.54358850071787
  C   -2.40031665245747     -2.15881195303754      0.32689738844778
  C   -1.09230415489803     -2.55036647703938      0.55877826082504
  C   -0.18496544944246     -1.52682727018534      0.21228265366085
  C   1.17835918297260     -1.78577893015338      0.03681733730581
  N   1.57201901795516     -3.10868399438692      0.05437373826028
  C   2.28117651362963     -0.94010140267469     -0.24775998920023
  H   4.53828953528779      0.05365479674300     -0.50398600602251
  H   4.12277920432592      1.67665678488814     -0.38503582969067
  H   2.31005004715741      2.39558583208204      0.56727140701856
  H   -1.78747889093396      3.98714066538991     -0.43283891787443
  H   -3.28400614113395      0.86575404963609     -0.67284239632396
  H   -4.37109989403073     -0.41715024140461     -0.19594466456714
  H   -3.28344196525802     -2.74961392289224      0.51666616834839
  H   -0.83464912225561     -3.51515235400671      0.96858329431606
  H   2.49060254845685     -3.31940597047124      0.40189547247586
  H   0.88315658711805     -3.81525817115190      0.22643848182241
  H   3.13860271731890     -1.51018860609246     -0.59130782325237
