28
Coordinates from ORCA-job ./opt_b97-3c_parallel
  N   4.67861213246784     -1.73717186633714     -0.79369967827162
  C   3.59547285216692     -1.46856057960391     -0.47299643143626
  C   2.24450823462934     -1.22684739451935     -0.10354512459282
  C   1.44460518977510     -2.37607548062828     -0.09301650375034
  N   0.31839668413126     -2.64628105545358      0.50861498738266
  C   -0.80050966359170     -2.06409687456031      0.82952210810978
  C   -1.37453565065601     -0.89532642530153      0.33447321080557
  C   -2.77080136521876     -0.71160212013138      0.28474336048763
  N   -3.73923856649067     -1.60855533043251      0.62173817345810
  C   -3.02557051446359      0.61052366115689     -0.18377556106631
  C   -4.30957002092962      1.11716600876861     -0.41618064959087
  N   -5.40130326399306      1.47902101182519     -0.59340143848659
  C   -1.80238417142913      1.25815699648862     -0.37053415910624
  C   -0.74737486640419      0.38185433077002     -0.06513945158601
  C   0.56685758779920      0.84314975798819      0.09991624778393
  C   0.91753844971898      2.18912203650209      0.17745024445779
  C   2.30924594745334      2.23953636344872      0.30114492973132
  N   3.09723659653680      3.30254243868377      0.46056638871178
  N   2.89216291637126      0.99702345113866      0.28089605821296
  C   1.90624745124639      0.12068728510804      0.16929648349027
  H   1.89496091753086     -3.24331578363960     -0.56937012006952
  H   -1.40907668799170     -2.64799702171114      1.51990711304892
  H   -4.68227596602198     -1.36959880314792      0.36385098205658
  H   -3.53229084589713     -2.58565380067784      0.52025008548190
  H   -1.69755936540420      2.27461165744403     -0.70739450193053
  H   0.24434916273757      3.02630037580960      0.23240438760390
  H   2.73639271317888      4.23768240734780      0.46424141617710
  H   4.08889906744805      3.16176625836457      0.54144059248675
