29
Coordinates from ORCA-job ./opt_b97-3c_parallel
  N   -4.99917067849292     -0.70389034653319     -0.32271719534043
  C   -3.96744364812674     -0.16249580128716     -0.32333816244819
  C   -2.71401341191371      0.45302856926687     -0.30571533820670
  C   -2.42762806025028      1.77480146258505     -0.58658559914633
  C   -1.04678875790621      2.00228938156217     -0.43609122413635
  C   -0.39345302578518      0.82014260255823     -0.08669635140249
  C   1.00744146625072      0.71670437707760      0.11150615045719
  C   1.83367981887827      1.84677297238229      0.27484608838350
  N   1.44853150716093      3.14049259501176      0.56969307804727
  C   3.17749822201003      1.48945590377255      0.00888869075187
  C   3.23154223088010      0.16209172452476     -0.34558737370180
  C   1.93099600670225     -0.40360415829160     -0.21939120780135
  C   1.77817529589280     -1.77952054563959     -0.22417322056699
  N   2.78027456628336     -2.55524901315374     -0.76783641852571
  C   0.82793277874302     -2.56004071180783      0.52313372916933
  C   -0.47585686606255     -2.42072063556038      0.85185037558746
  C   -1.48068066704104     -1.48991570135133      0.48966869907402
  C   -1.46662820910518     -0.21299172123495      0.02596978720862
  H   -3.15222145943560      2.51272122018416     -0.89472614694096
  H   -0.56056508952728      2.93184093264980     -0.67331369112127
  H   2.18056568269667      3.69549286728991      0.98315007731435
  H   0.59031227789429      3.21257585853178      1.09488343856649
  H   4.02425141607173      2.15363317767129      0.10502685591920
  H   4.14338531202403     -0.39687493266182     -0.47727259837964
  H   2.56804661512940     -3.52654844871802     -0.90831843754332
  H   3.30862146176498     -2.14999418604710     -1.51891670099920
  H   1.26986973981496     -3.49011704547560      0.86931118526224
  H   -0.86872936292767     -3.25979473941840      1.41544073792690
  H   -2.47982180182312     -1.89362561228729      0.62023309949263
