34
Coordinates from ORCA-job ./opt_b97-3c_parallel
  N   2.69058073865453     -3.45710992406159     -1.84414736536643
  C   2.20802240305042     -2.59627187208617     -1.22346408293156
  C   1.67414499316849     -1.52748079656310     -0.47760979288562
  C   2.39052866573848     -0.33256892569178     -0.48758657023932
  N   3.59390669888824     -0.30585957772214     -1.11377872207182
  C   2.02583220684412      0.89430122602975      0.16593265178530
  C   2.95656651916607      1.81836748769510      0.64532437888868
  N   2.42411010504629      3.03048420854629      0.94841529174280
  C   1.14466716563091      2.95245876186176      0.59172753280186
  N   0.29218439107592      3.97973821986407      0.78411858869954
  C   0.78772932005750      1.61910348817473      0.09133690559382
  C   -0.48361320232630      1.24201805081107     -0.29225845982702
  C   -1.49297075347497      2.10785895363220     -0.77678469044119
  C   -2.67054848379114      1.38580753223464     -0.88929932066319
  N   -3.85323577443457      1.77147550275448     -1.38127018052098
  C   -2.43852711695522      0.03452812438688     -0.39702584368478
  C   -3.45765451889320     -0.92037417226251     -0.36413923967111
  N   -4.37139656373785     -1.63982025772062     -0.41324803194888
  C   -1.10284278321404     -0.09285262083983     -0.06000760653150
  C   -0.57854478832778     -1.20386034789686      0.67975255335335
  C   -1.44462229185566     -1.78142966553096      1.63479577738264
  N   -2.09192646265868     -2.29247286326264      2.45642551236039
  C   0.61858115614791     -1.89047218877199      0.46013435717195
  N   0.80843112795141     -3.06770788839358      1.08466330075374
  H   3.95916244102040      0.57971870703233     -1.41072769994062
  H   3.92783166650713     -1.12110630767986     -1.60053723146835
  H   4.01226986466438      1.64189999836883      0.79325730922010
  H   0.60705936572895      4.69436862445289      1.41976847783955
  H   -0.69452936304533      3.77796274476987      0.78409808409898
  H   -1.32462689625509      3.09243427380222     -1.18126206854629
  H   -3.98610951845772      2.68714912999097     -1.76740057673274
  H   -4.61284051332758      1.11702361337017     -1.45415427773060
  H   1.63578946283203     -3.60654970491060      0.90586825346788
  H   0.06435387798155     -3.50839398688434      1.60006680704145
