28
Coordinates from ORCA-job ./opt_b97-3c_parallel
  N   4.27372417164427     -1.23753175423014      0.77301252917797
  C   3.15993505729596     -1.14634813032494      0.45441837298264
  C   1.77373905906795     -1.16166451549788      0.15833849745495
  C   1.22330109847811     -2.48091379116672      0.31946209871712
  N   0.20608427262200     -3.02527321155169     -0.23698112921816
  C   -0.86359891107215     -2.62664173526394     -0.91938734902350
  C   -1.69917376255403     -1.60103297616358     -0.57523087770511
  C   -3.09372574034897     -1.63886029646549     -0.77823322455869
  C   -3.70643949109772     -0.71528519699808      0.04864748139745
  C   -2.71817777694983      0.01346327642859      0.75003077945917
  N   -2.96594026420437      0.87975872791935      1.75278360742008
  C   -1.42837307720050     -0.41112786781543      0.28749176080768
  C   -0.31482068462854      0.40383811161156      0.14862264988231
  C   -0.33946702503992      1.83952213843218      0.13314275549549
  C   -1.46688759975240      2.66738412302759      0.10550556753079
  N   -2.39868390493451      3.36508148507748      0.09160784909494
  C   0.92759496746071      2.31378445446591     -0.22194036090091
  C   1.81497044129444      1.25159219336611     -0.38645598054855
  C   3.13644485596199      1.41324047020159     -0.82982618804621
  N   4.20556609844824      1.60433288116812     -1.24291935661434
  C   1.12446613723917      0.03383518306341     -0.13252532732917
  H   1.81563972668914     -3.14636391865648      0.94176810713321
  H   -1.20826664659339     -3.33949945468538     -1.66274706346048
  H   -3.60045739004290     -2.36837546188536     -1.39032312093096
  H   -4.77017007266706     -0.58087549484976      0.16969790516168
  H   -3.83512938979965      1.38701215621883      1.73658143672131
  H   -2.19984131030573      1.42302802266672      2.10963983546477
  H   1.16317341608962      3.34844993200781     -0.41187639586541
