25
Coordinates from ORCA-job ./opt_b97-3c_parallel
  N   4.16795012342332      1.74748127072487      0.28963338744584
  C   3.06961316434129      1.39485533402885      0.13574132151397
  C   1.74579640410105      0.92253318313331     -0.01388993930195
  C   0.89347449965241      1.80635592182462     -0.70620774775322
  N   -0.37896673816309      2.03176953534779     -0.59629531176042
  C   -1.44698535490148      1.43707354382111     -0.12248693127906
  N   -2.52254723096422      2.16193316044394      0.21075464846995
  C   -3.52430429282193      1.26400175924519      0.38056255309227
  C   -3.17053987603880     -0.05662092876165      0.11802797265785
  C   -1.79378145761323     -0.04708740086331     -0.12073360375833
  C   -0.95538495765498     -1.14199113296730     -0.24513811566811
  C   -1.45271560154444     -2.45241059537799     -0.49265858011218
  C   -0.42125084263174     -3.35520115601866     -0.39087297413184
  C   0.75087719595467     -2.66232127260975     -0.00750646465538
  C   0.48564144700462     -1.29635523413117      0.06226355403510
  C   1.49698254043570     -0.38378501261828      0.49720426739344
  N   2.43950708419079     -0.89784435890277      1.30896253761793
  H   1.41215216530594      2.52970130203594     -1.33160330918954
  H   -4.49553954283335      1.60816553999374      0.70928909746777
  H   -3.80373509281172     -0.92059317085297      0.22348035464836
  H   -2.47081375815957     -2.67040280783594     -0.76806429310329
  H   -0.47773074182887     -4.41390970636102     -0.59150674712040
  H   1.72038217805090     -3.12047187570434      0.11027381354158
  H   2.33037257529982     -1.81914659516621      1.68702009511863
  H   3.28249397990617     -0.39280425162817      1.52327837273103
