30
Coordinates from ORCA-job ./opt_b97-3c_parallel
  N   4.91330629306993     -1.65592783420423      0.37343097753383
  C   3.84036546082448     -1.21197034849661      0.28422807839906
  C   2.52381830240023     -0.71207847514794      0.15155176509345
  C   2.40638543886170      0.67325724064470      0.29173320209857
  C   1.43077870898474      1.63316507739662      0.12241987162015
  C   1.81216965489990      2.99128442729962      0.20506706594044
  C   0.74226351153153      3.83283141828762     -0.03662487581457
  C   -0.39716102069907      3.04346833351241     -0.25042736063785
  N   -1.63431084085468      3.48579163801058     -0.51200782617117
  C   -0.02154489038515      1.64085857240474     -0.15744488875755
  C   -0.95531358035889      0.63818172156053     -0.14673226310727
  N   -2.29473354041962      0.91183567286361     -0.19548470280636
  C   -2.94353234527399     -0.22386537978855      0.09024254636977
  N   -4.27319794389237     -0.27759535882988      0.15643184334991
  C   -2.07073616573816     -1.32918938781280      0.30172099105674
  C   -2.48017427949129     -2.64515940450450      0.49966242026220
  N   -2.88823438781291     -3.72343385142040      0.66545263051675
  C   -0.76665954163351     -0.85947037969013      0.06104247900789
  N   0.23043512081332     -1.68458986234870     -0.06248459679449
  C   1.53979806467227     -1.68563311153328     -0.22031778011139
  N   1.99818724802726     -2.84704257015881     -0.74234631836142
  H   3.36097193104976      1.12274756867353      0.54073892935693
  H   2.82109591352633      3.31195295248269      0.41647811159928
  H   0.76593320388116      4.91122137349434     -0.05402751454275
  H   -1.84713089931192      4.45892747103260     -0.38636246853285
  H   -2.37316970548271      2.78953952668878     -0.46108410105255
  H   -4.74184940444328     -1.14746534420759      0.33492710228660
  H   -4.81931710618699      0.52657478495862     -0.09314760163392
  H   2.98198388225112     -3.03187906149933     -0.82867695203475
  H   1.35288405419476     -3.61474118546739     -0.79585418263349
