34
Coordinates from ORCA-job ./opt_b97-3c_parallel
  N   4.60721672492465      1.85731510711683      0.75868265910946
  C   3.79057526018937      1.07259865219657      0.47863711567573
  C   2.84991216877053      0.10658016657725      0.13185007437680
  C   3.17904095293909     -1.16717405401128     -0.46024294732489
  N   4.44404401362417     -1.54740097680723     -0.72199517621505
  C   2.00766116064971     -1.88026028316650     -0.66467537084504
  C   0.91431324311110     -1.09972028392678     -0.23429308133420
  C   -0.36156960577877     -1.59894829103967     -0.00508108436559
  C   -0.56336288079133     -3.00094380269921      0.22655773946234
  C   -1.87154262762694     -3.22660613942717      0.54860802415711
  C   -2.57573365736455     -1.98882123448312      0.45665995388116
  N   -3.93597808483226     -1.90016013055860      0.62813062514642
  C   -1.66700611088684     -0.96208548050050      0.12435868878362
  C   -2.09114447127288      0.30868735844463     -0.38161512042646
  N   -3.31134695600732      0.29583927895589     -1.00239891330463
  C   -1.46495987714249      1.55414739202867     -0.25289873727710
  C   -2.10733846174577      2.63321314286560     -0.89360457011728
  N   -2.66801057697556      3.50970409558646     -1.42116509279611
  C   -0.36558623566485      1.94348204489029      0.60936159726237
  N   -0.52958019509883      3.15877115176712      1.21978470518986
  C   0.84846123129198      1.32106753215030      0.81354596634556
  C   1.45653665976723      0.21171153849605      0.22463026830902
  H   4.61704569339140     -2.36047971980991     -1.28316198837694
  H   5.18398025987017     -0.86922099408354     -0.67037977725085
  H   1.94133174227780     -2.86553591559997     -1.09380808493944
  H   0.23280203105106     -3.72408898773126      0.27584712678089
  H   -2.30891033220554     -4.16367145385362      0.85924487923074
  H   -4.34882923695115     -2.63182933985060      1.18114834434217
  H   -4.30524408267379     -0.98686522260602      0.83377113172286
  H   -3.60211615515511     -0.56224144763879     -1.43547781828676
  H   -3.64260973779506      1.13867601247204     -1.44145587300596
  H   0.29151470875332      3.66351311560261      1.50489337377888
  H   -1.30735207430317      3.73545676635154      0.95100938742239
  H   1.53681244916076      1.90994788639199      1.41270447698847
