24
Coordinates from ORCA-job ./opt_b97-3c_parallel
  N   3.37907060619068      1.62054347747596      0.38211793153359
  C   2.14149990533516      1.12494581428080      0.03564923682937
  C   1.21260598005218      2.13686398840329     -0.37082682680538
  C   -0.14616558259097      2.18721474574661     -0.39684846222514
  C   -1.20525570293277      1.31313688283344     -0.08580789951500
  C   -2.50609589467528      1.78616970599061     -0.04147373027434
  C   -3.39975454685427      0.72091213954165      0.26165517283202
  C   -2.68369780581439     -0.44027073625867      0.36666644174594
  C   -1.29361404693959     -0.14931953119361      0.16414462766366
  C   -0.35742421101248     -1.15032512612707      0.09132058836318
  N   -0.76812954548016     -2.45565357653111      0.09031287037763
  C   0.31172018970827     -3.18533164521757     -0.18678957910397
  C   1.49450295882394     -2.44051975025891     -0.33234685156940
  C   1.15972108678942     -1.11273910833653     -0.11631173081760
  N   2.08784265524304     -0.17787580441122      0.02264019099613
  H   3.43086884020441      2.54202561615093      0.77856539007081
  H   4.01553892688205      0.94096703861254      0.76308347125854
  H   1.69988197750298      3.06581752905608     -0.64333809146218
  H   -0.51714105118608      3.16638157613215     -0.68488552246076
  H   -2.78891362246653      2.81383235315841     -0.21438063452885
  H   -4.46830672381288      0.82000128702255      0.37803897800958
  H   -3.05614812906279     -1.43147592300495      0.55409831661879
  H   0.22444994127680     -4.26161467917926     -0.26618982517565
  H   2.49278349141895     -2.81159103238656     -0.49023425966111
