28
Coordinates from ORCA-job ./opt_b97-3c_parallel
  N   4.03720821405039     -0.34360737209717     -1.20950787464843
  C   2.97785340727736     -0.33611919145455     -0.72558080197804
  C   1.68990441024799     -0.38738663815176     -0.14316789120656
  C   1.18978002103446     -1.68370647220444      0.05643935820945
  N   2.02872446526697     -2.73567166159031     -0.20471005807126
  C   -0.03242592306392     -2.09586506121544      0.66130554744732
  C   -1.32578861286236     -1.65943456182858      0.56176739086807
  N   -2.30771314790618     -2.47531899836125      1.08370323890412
  C   -1.84928376207569     -0.50207380107519     -0.12087407849100
  C   -3.12693987822950     -0.43313083751667     -0.62950235111720
  N   -3.48366297116376      0.84794151779531     -1.03519892906882
  C   -2.48496116327898      1.62028460355015     -0.70164441460409
  C   -1.36632622272283      0.87069541328164     -0.14115514850282
  C   -0.18868153314247      1.46412557954493      0.22065850314766
  C   -0.06017997720737      2.87120952344447      0.46928279646980
  C   1.25385787755572      3.14102270787771      0.71825779180434
  C   2.03257968199459      1.94446922835442      0.57143937966214
  C   1.20446466104053      0.88601045983612      0.30556002331732
  H   1.61138695595054     -3.61711886890203     -0.44114525467330
  H   2.91895752134173     -2.55337502970513     -0.63744578868471
  H   0.07811945298843     -3.04334735952274      1.17971142528125
  H   -3.14466143143640     -2.01906611953886      1.40231716714071
  H   -2.00992373309496     -3.23748938041816      1.66804250202258
  H   -3.82600687591282     -1.24620380710381     -0.74929588134022
  H   -2.47365669345631      2.67258832981867     -0.94128561313729
  H   -0.88564025598614      3.55478232831181      0.56549526893724
  H   1.65698345038713      4.10192593887533      1.00242845846058
  H   3.10786769550464      1.89515187369517      0.62351545785095
