28
Coordinates from ORCA-job ./opt_b97-3c_parallel
  N   5.90158044346512      0.90316346164969     -0.38898123361132
  C   4.79188954532492      0.61084741233646     -0.20490221960814
  C   3.44810147349578      0.26389244665073      0.01724496109848
  C   2.99476824012261     -0.87539949763332      0.69682345662448
  C   1.59158860135462     -0.89126176130794      0.63859374570458
  C   0.87469432062069     -1.99162089344458      1.11051012339209
  N   -0.26748470484161     -2.48996670722318      0.74006073714641
  C   -1.30512361913321     -2.12493148837972      0.01946450853807
  N   -1.84834065748814     -3.10271789710627     -0.73148200418887
  C   -2.01407464391930     -0.86776529705257      0.06492058996691
  C   -3.41495710612552     -0.98237126535412     -0.11645601777438
  N   -4.54284365896933     -1.19312261965479     -0.30344437042990
  C   -1.51324358184254      0.42433480117984      0.18378783051865
  N   -2.40245576485180      1.43318751680787      0.23344668284124
  C   -1.69151243942320      2.56621652221231      0.08395239981045
  N   -2.30507979955619      3.74914272594587      0.11178421359330
  C   -0.29718594265130      2.33286064724592     -0.06440905501412
  C   -0.10684280764149      0.97305012262508      0.02402894298040
  C   1.15987820606219      0.33955281982506     -0.02469443435799
  C   2.32583500217439      1.01036545900187     -0.40150557032100
  H   3.61662204478509     -1.64976860092694      1.11525245855415
  H   1.40568774483445     -2.61867880091556      1.82391376404873
  H   -2.74174504401616     -2.97310673901387     -1.17372452493170
  H   -1.52106748908111     -4.04201852316927     -0.59020971255517
  H   -1.80657568357133      4.60848940483600     -0.01967555422346
  H   -3.30128506947414      3.77874028979039      0.24081703013185
  H   0.46910363353049      3.08623523961440     -0.12583152752867
  H   2.37679581761638      1.96492747786076     -0.89766285640647
