28
Coordinates from ORCA-job ./opt_b97-3c_parallel
  N   4.63480979388810     -0.73148378119691     -1.32207485442924
  C   3.67895829503320     -0.18591626325180     -0.94163626507469
  C   2.49599438634246      0.40392113412922     -0.49085718537063
  C   2.32368264383932      1.67903600752304     -0.01758763778347
  C   0.99250190525123      1.85295422462462      0.45812338370231
  C   0.53022929797995      3.07634924276285      0.95094281324690
  N   0.17131790958397      4.10244762849204      1.36782369807354
  C   0.26046624484193      0.66124185201379      0.26003222974332
  C   -1.13319863494440      0.51756565285400      0.24918957588666
  C   -2.04668327235652      1.58250903389543      0.34448316493299
  N   -3.29568223972158      1.27078615621214     -0.05316089355102
  C   -3.26347044421694     -0.01337555310495     -0.43699023187930
  N   -4.39470870138913     -0.61339172663813     -0.86368003209697
  C   -1.96432955995308     -0.60961015245713     -0.22153066823273
  C   -1.81806927266082     -1.96706226069139     -0.19048552539973
  N   -0.90415659040824     -2.75654507228031      0.37297356296219
  C   0.37638465222609     -2.60795903064285      0.49368539710243
  N   1.02081928550193     -3.49924385033518      1.27941202256991
  C   1.28093237991423     -1.68472026468406     -0.18688437015899
  C   1.26437159503145     -0.33818607912413     -0.21382556863980
  H   3.07977974224855      2.44713377759190      0.00671644166411
  H   -1.82516907321457      2.59625592132227      0.63030257299267
  H   -5.17407308724982      0.00313548251817     -1.01976973160975
  H   -4.34140899308203     -1.41010053609621     -1.47114974927252
  H   -2.66860616646965     -2.54032969230291     -0.55211097565952
  H   0.46899716738575     -4.13461499400022      1.82994925332500
  H   1.98151414700741     -3.35980013497412      1.53262519982768
  H   2.20282650494792     -2.15053919620256     -0.52022101157826
