28
Coordinates from ORCA-job ./opt_b97-3c_parallel
  N   -5.34530858613792     -1.31758428324144     -0.01599272958940
  C   -4.28074391929814     -0.85800596135007      0.05549946402567
  C   -2.99691926283599     -0.29076821898684      0.14180893093870
  C   -2.69665679468479      0.97029627591627      0.67190091656863
  C   -1.32201928457649      1.20809120436394      0.51282288985574
  C   -0.82979118264691      2.47728437512538      0.82355350903417
  N   0.18982530554005      3.17038675573292      0.39841114120554
  C   1.31309966993514      2.88108590454838     -0.23039607587689
  N   1.83727445629297      3.92213871139829     -0.92187995585097
  C   2.14492410207420      1.73151618138764     -0.14514007107843
  C   1.89093989876492      0.39200381902114     -0.02924166443495
  N   2.98141616006756     -0.43363870451584     -0.02569399213663
  C   2.51967482569427     -1.67197363275542     -0.12381199529972
  N   3.31598977875743     -2.74007173278638     -0.14875059992927
  C   1.07848381714510     -1.72805282953958     -0.19166914942365
  C   0.40067858277704     -2.94533332792605     -0.23172709252694
  N   -0.05239613883578     -4.01813510767535     -0.26908882521278
  C   0.62023981590204     -0.41383228333531     -0.09828473679981
  C   -0.73088482664361     -0.01272385183828     -0.06134351638570
  C   -1.79768264680073     -0.89293546660256     -0.28455680216741
  H   -3.41154311972954      1.67427806796707      1.06531594770391
  H   -1.49846277676075      3.06217945675759      1.45217145317372
  H   2.59696148471798      3.78507150815195     -1.56176544868844
  H   1.30366236402768      4.77147813505987     -0.97997110737709
  H   3.20223569111646      1.94067645125937     -0.25476083869697
  H   2.93629779256589     -3.66907321657432     -0.18154274338146
  H   4.30609803591774     -2.61936019134431     -0.03494913760310
  H   -1.73111245944618     -1.88972262001831     -0.68138857814667
