29
Coordinates from ORCA-job ./opt_b97-3c_parallel
  N   -4.46103022645381     -0.46273784030611     -0.40504952836388
  C   -3.12303268473727     -0.44217522645208     -0.24226791858536
  C   -2.31872089883894      0.72294728991622     -0.11786214773631
  C   -1.00825896139038      0.28988407012196     -0.01419649839913
  C   0.13489520298571      1.09633326991456      0.09887558011162
  C   0.11135750704111      2.49688939774672      0.36045799740751
  N   -0.97319876699692      3.26215687015686      0.73218872253305
  N   1.31014302827645      3.08203845884669      0.18354223773869
  C   2.13647207081145      2.10949549824919     -0.24599281099035
  C   1.51774327874175      0.85339341585761     -0.29219080553197
  C   2.22153900168114     -0.32743544810551     -0.62026901195703
  N   3.22423488615336     -0.21806988318747     -1.53009252569223
  N   2.14439646009172     -1.52593573352423     -0.06252785941462
  C   1.18708569058120     -2.21666954408345      0.49995543223913
  N   1.62536834718408     -3.21092849816010      1.32415960084595
  C   -0.22706118259956     -2.20272686045675      0.29505716436731
  C   -1.12794336215425     -1.22153149692648     -0.00704756236663
  N   -2.43407149340897     -1.58501989743347     -0.16514037761915
  H   -4.93881187876033      0.37374578320629     -0.68411733966768
  H   -4.87554506972334     -1.33827631587579     -0.67343370891223
  H   -2.65414778231735      1.73788136492263     -0.24312418147125
  H   -1.63564605800483      2.78722863055041      1.32688696106395
  H   -0.68127018693127      4.14809144464523      1.11632871233683
  H   3.18600919628160      2.31879326230867     -0.39900526327826
  H   3.94654087811605     -0.91630513674048     -1.53123007392419
  H   3.41197480356726      0.66920205106964     -1.95707670658558
  H   0.98819787658918     -3.91451717966514      1.64634076570933
  H   2.60367545737908     -3.43662344391326      1.30581701293926
  H   -0.70124905106369     -3.16661984778267      0.43969523030282
