24
Coordinates from ORCA-job ./opt_b97-3c_parallel
  N   -4.61489390476430     -0.62319959275852     -0.84458965149036
  C   -3.56684777205388     -0.18309729156852     -0.60400439967961
  C   -2.29687047113750      0.33551884054606     -0.32528550794229
  C   -1.95059088964266      1.65831070392318     -0.15874926914685
  C   -0.58021459639083      1.78001497672856      0.20610736906215
  C   0.03530038662919      3.02271354566973      0.39195500707227
  N   0.52182105901442      4.06730549001269      0.54953890161510
  C   0.01062847782748      0.50470954396922      0.22658035158438
  C   1.36570433247576      0.18821245428629      0.16270324236108
  C   2.41079011752890      1.13127308821393      0.17173999919237
  N   3.60710988040150      0.59977765263542     -0.15924599276445
  C   3.39303704987599     -0.68855990044724     -0.43429144457475
  C   2.04977198409496     -1.08274314012009     -0.23171154973581
  C   1.73741421206536     -2.42481983332480     -0.29054185304747
  C   0.66417668684284     -3.18413427377239      0.17505633201402
  C   -0.57618430983222     -2.78152570263560      0.62216036715143
  N   -1.27336643735094     -1.70687749525706      0.31090715326447
  C   -1.14859044347454     -0.46250099856644      0.03517708060934
  H   -2.61817854202660      2.49670313952120     -0.27582173037069
  H   2.33138266228027      2.18191228127629      0.38860844571380
  H   4.20376111779564     -1.34544515940683     -0.71476862771463
  H   2.57004995282230     -3.02876050784542     -0.63713318640266
  H   0.85006614432796     -4.24810116854614      0.25504121511679
  H   -1.14990379410855     -3.50909739783322      1.19038487831211
