34
Coordinates from ORCA-job ./opt_b97-3c_parallel
  N   2.56850981049908     -2.71414029850092      2.10872982802395
  C   1.88980747961096     -2.07519000406701      1.41014100515789
  C   1.02579000339638     -1.35316204145860      0.55773119005504
  C   1.62263039330459     -0.22558899754777     -0.12887189986112
  C   2.93776590303935     -0.18202801912677     -0.47635118032997
  C   3.28743966124296      1.17869111550544     -0.83487635702070
  N   4.52352509301372      1.52925603849517     -1.26615570744653
  C   2.19362706295086      1.99382324335472     -0.62597936022788
  C   1.11047920016683      1.17752046000784     -0.20711243537119
  C   -0.12265511731134      1.64945901806771      0.19430311228057
  C   -0.28852449298105      2.99495018184198      0.69628028077779
  C   -1.57971497577400      3.17596992677890      1.08107169153712
  C   -2.31576878846950      1.98515148148785      0.75168839036276
  N   -3.66874119959293      1.89995441497671      0.89538991735528
  C   -1.43201286134876      1.02540321471919      0.22641566669875
  C   -1.86554824802061     -0.13591620722407     -0.50072059691302
  N   -3.06336668512147      0.01259538882811     -1.16185699359843
  C   -1.25133961616098     -1.37810788874052     -0.54087536280164
  C   -1.82263998161362     -2.35509093500540     -1.37866407827559
  N   -2.32781644855072     -3.14677641357357     -2.07052079930865
  C   -0.23398200293699     -1.88654738678484      0.38142768716384
  N   -0.59187005958014     -3.02471268510531      1.03374030109911
  H   3.63687428588137     -1.00143746574299     -0.41097863818099
  H   5.12653867431380      0.81395179547661     -1.63080866621515
  H   4.65830148341376      2.44361492107783     -1.65916507773023
  H   2.12371725564782      3.03886050744807     -0.87847317105407
  H   0.52619241119758      3.68277182143969      0.84916254354288
  H   -1.99985422956242      4.04547699641897      1.56368327364582
  H   -4.08970548747612      0.98942202718170      0.82077928065988
  H   -4.09669321267466      2.51318082223926      1.56644089076156
  H   -3.25884809344188      0.92830236479825     -1.52846154124277
  H   -3.36250475206251     -0.74443932756130     -1.75583285011786
  H   0.11982950215069     -3.59895229929166      1.45539313674638
  H   -1.43159549184988     -3.49613946661328      0.75141472992698
