27
Coordinates from ORCA-job ./opt_b97-3c_parallel
  N   2.97615081854150     -3.18697393676815      0.83900012931983
  C   2.18118757284106     -2.42769786568434      0.45364088757094
  C   1.23820042862924     -1.48142960888736      0.00517607743727
  C   0.28441820193133     -1.99214331090020     -0.97337552252912
  N   -0.97924144550370     -1.85527158570944     -1.05804094938883
  C   -1.84067275815496     -1.15423375236207     -0.26724390082642
  N   -3.01753928987690     -1.65822729508830      0.01406638388200
  C   -3.75737744398440     -0.62592136501207      0.58891974199714
  C   -3.11808477531824      0.57719407520992      0.55721479571993
  C   -1.79700902471091      0.30073136511809      0.08079681736758
  C   -0.75995480910733      1.18600724666258     -0.03228716824217
  C   -1.00078467318608      2.62012686601497     -0.16032321537771
  C   0.17486283915560      3.24270356914297     -0.38108043568710
  C   1.23602345261961      2.25480597712807     -0.29426074570103
  N   2.53959137987771      2.60242356894310     -0.37281659408158
  C   0.67653576096260      0.98807225354052     -0.08430308458397
  C   1.44799972444295     -0.15710994742817      0.34364993473122
  N   2.58313902893098      0.16091306842093      1.05891827100958
  H   0.72268694305873     -2.65949945127703     -1.71552840340734
  H   -4.73469144200497     -0.84167754246913      0.99360060054614
  H   -3.47862961891190      1.51719542925847      0.93959289544792
  H   -1.98178605657684      3.06202635640805     -0.19873546686568
  H   0.33025838981525      4.28841449440092     -0.59958330767827
  H   3.23672950124088      1.87982704971046     -0.43156533210319
  H   2.78239433315553      3.49995103261099     -0.75019608989412
  H   2.50381262923257      0.95047150022960      1.67717629870324
  H   3.09964092610064     -0.61077794561340      1.45215449943364
