27
Coordinates from ORCA-job ./opt_b97-3c_parallel
  N   -4.91940584034617      0.44803498454184     -0.52156380729467
  C   -3.76487116134609      0.40943205815215     -0.38035451732591
  C   -2.36630772199536      0.31875797111939     -0.18044803394530
  C   -1.68033760282122      1.51481795759578     -0.26038702353513
  C   -0.36967994190652      1.94501751879480     -0.07289796814700
  C   -0.06816817459757      3.31537752951573     -0.10913753563072
  N   1.23164612199263      3.62354955364080      0.05884161247997
  C   1.86401374256377      2.45036352464911      0.17590378820834
  N   3.17104255982897      2.34378402322279      0.32866748958606
  C   0.92676723315622      1.30240181543760      0.11639526741946
  C   1.34005558631435      0.01016404661319      0.13179846607422
  N   2.69447051078550     -0.29987257137105      0.11594835633500
  C   2.78227381047543     -1.58807932671581     -0.15136349594015
  C   1.52269437463432     -2.23337560070161     -0.28244290920272
  C   1.29222027281933     -3.59721015831832     -0.48316900343326
  N   1.10356853983292     -4.73272787193471     -0.64704416458249
  C   0.54243003615005     -1.25780810301419     -0.03223749539699
  N   -0.71969122296789     -1.56422644681666      0.12351405061920
  C   -1.89186989415126     -0.99504613227036      0.23835218221113
  N   -2.82844741270933     -1.80139906113020      0.77600259056903
  H   -2.34048814287411      2.34546888647748     -0.48653169764313
  H   -0.79390887191000      4.10292550101407     -0.25956894124457
  H   3.73583518457837      3.17616236835879      0.32599795638031
  H   3.56268067144439      1.40274878193146      0.32310436627490
  H   3.74352392890122     -2.07458865006749     -0.23896563615717
  H   -2.58104512323862     -2.76042654949303      0.94592743082668
  H   -3.78553457690522     -1.51405562342944      0.88167025489464
