29
Coordinates from ORCA-job ./opt_b97-3c_parallel
  N   3.14354657632280     -3.66315747568633      1.76096631850773
  C   2.37514605389546     -3.01323659953932      1.18227609857387
  C   1.45987534630373     -2.20030871743869      0.45965624013667
  C   0.14375177299949     -2.51754337839665      0.52077544642843
  C   -0.97981441261740     -1.92069104451057     -0.13718651921696
  C   -2.15016217742532     -2.65892209082986     -0.42548337742523
  N   -3.18907012212132     -1.93736465317911     -0.88737686989315
  C   -2.76942767327156     -0.67610502700828     -0.83822024847265
  N   -3.44996305355108      0.30312683962894     -1.39221986040583
  C   -1.35793534659057     -0.56712675490061     -0.29428102374899
  C   -0.70194322589917      0.59845481189196      0.05479696567981
  C   -1.31492393568754      1.81570030181283      0.60346355540308
  C   -2.66076039403880      2.00851985518872      0.94871572701345
  N   -3.78403778774166      2.18029222588136      1.19569897782957
  C   -0.30822074871282      2.68695113630561      0.93202548170399
  C   0.94519547063372      2.09901411155405      0.54447510152980
  C   2.18495225158081      2.74456541494169      0.67109724197519
  N   3.19969530111947      3.29277316317555      0.80795552541980
  C   0.71697068049117      0.82692641401827      0.03717131679849
  C   1.74134712456735      0.04009799915180     -0.66503913142346
  C   2.45606350300600      0.75121732500761     -1.67093932938904
  N   3.00165254935159      1.34254428101060     -2.50710448282797
  C   2.08249372817692     -1.24021703390467     -0.44221721518286
  H   -0.09649215955599     -3.39699995756484      1.10829994800028
  H   -2.26239739036181     -3.72320999536981     -0.26820128088085
  H   -3.18465297575299      1.26748596147611     -1.29015374701654
  H   -4.36792271072920      0.10156141463632     -1.75717287327307
  H   -0.42260134089115      3.63659924311995      1.42573457958909
  H   2.94198136589992     -1.62095903537257     -0.98141845853261
