25
Coordinates from ORCA-job ./opt_b97-3c_parallel
  N   -5.14929294294415      0.25770229526257      0.12291197158857
  C   -4.03143576464363     -0.06135367279995      0.12437313541781
  C   -2.69716491005929     -0.48310753850175      0.13339807651902
  C   -2.23520286703642     -1.82921761536420      0.34114696436481
  N   -0.93595832991369     -1.94101568111168      0.20756582940397
  C   -0.44805645550940     -0.65041851446376     -0.03605074435170
  C   0.90649816218299     -0.42568019848978     -0.11537523235510
  C   1.91471739787099     -1.53464727556945     -0.20236917679616
  N   1.57855265776973     -2.80256043872160     -0.31669289456257
  N   3.16417583110240     -1.08912761017773     -0.19109903296747
  C   3.04866947778952      0.25845051150041     -0.02893852883812
  N   4.15162701968832      0.99018644542212      0.11549473355315
  C   1.70704349729113      0.74105774781388     -0.00345738761982
  C   1.32332529157800      1.98589776882660      0.59579816434334
  N   0.22679044824475      2.63432464390708      0.47948188180401
  C   -0.71374073025058      2.44199677377559     -0.50180133130765
  N   -1.58811403587714      1.53050979754762     -0.67951746745109
  C   -1.56723624164091      0.28394659886743     -0.12963656220560
  H   -2.86057895640849     -2.67908985903301      0.57172474272099
  H   2.29600954574974     -3.50768131186433     -0.32773809624319
  H   0.58919502834130     -3.01983620325889     -0.16540745779367
  H   5.04605141644896      0.53390261388896      0.08412990892336
  H   4.12230845806154      1.99228483067695      0.12022298005298
  H   2.03077589269335      2.39388020499990      1.32307919560919
  H   -0.77678565543146      3.29995151736370     -1.17113811900760
