24
Coordinates from ORCA-job ./opt_b97-3c_parallel
  N   -4.20246436656842     -0.38949103279279      0.69783312400122
  C   -3.18994142816704      0.13630250671705      0.46641031985727
  C   -1.99219974126655      0.80125135346643      0.19562042909651
  C   -1.91912131499503      2.14959508845774     -0.25946875834794
  N   -0.69906772803485      2.58232097453618     -0.52247175496883
  C   0.13224592101763      1.54103878558925     -0.20730709926008
  N   1.38904539403325      1.77099332719529     -0.03325179548956
  C   2.39822681097862      0.96359035131760      0.30015599257098
  N   3.13370165869491      1.35413091130189      1.35145624078263
  N   2.86497436024656     -0.06024632590444     -0.41180289478757
  C   2.20677900863743     -1.12425245272134     -0.78783360275114
  C   0.95938553906005     -1.63137844398450     -0.40795314985898
  C   0.71454857782356     -3.00500045323406     -0.51166300548460
  C   -0.52206532253109     -3.30078503887955      0.08140586797036
  C   -1.11540680143986     -2.11832556341266      0.49401654555542
  C   -0.25763834119593     -1.02879034698526      0.19727202954749
  C   -0.68086029178005      0.29523808437319      0.13754341156626
  H   -2.77834358436763      2.79059710969034     -0.40322742316582
  H   4.01498115787641      0.90193759160007      1.51832087649248
  H   2.96694014101972      2.25856616624167      1.75598032358388
  H   2.79034854039847     -1.78992066425427     -1.41896107807532
  H   1.40716944409903     -3.71971590698960     -0.92904789092286
  H   -0.95067470207394     -4.28558945912750      0.18281946149249
  H   -2.10096240596283     -2.03057124239991      0.91564651059728
