29
Coordinates from ORCA-job ./opt_b97-3c_parallel
  N   3.74195445114441     -3.42573484184796     -0.67304835393480
  C   3.00007548167897     -2.58554930752634     -0.36376817375574
  C   2.12172985890234     -1.54646599201744      0.03472517893750
  C   2.74434646616806     -0.56345651758956      0.93536685648481
  N   2.63207399251904      0.69852329280153      1.04954901103533
  C   1.88076774853717      1.56733340626388      0.28043237583372
  C   2.35945134660693      2.82291679431141      0.01098687112952
  C   1.35567542084278      3.58834860502252     -0.68816059551774
  C   0.21026489277790      2.86222951552454     -0.73593057474038
  C   0.47792685371651      1.54359179354734     -0.15456713781477
  C   -0.46000942690642      0.55074290196817     -0.02621932876030
  C   -1.92064631822048      0.83135313347664      0.00379650116283
  N   -2.46111652428373      2.03497493954665      0.17279523830309
  C   -2.61139390642866     -0.36926734912187     -0.03872332093827
  C   -3.98966423972593     -0.53779482659848      0.06948853300057
  N   -5.14325735811616     -0.68111479373327      0.15326098186710
  C   -1.62827574500892     -1.41996770035043     -0.05430794692044
  N   -1.96183170191303     -2.71066159837881     -0.12070649089392
  C   -0.32525393596746     -0.88038227864418     -0.00781542280771
  C   0.80297700972969     -1.69476861694291     -0.27226944080766
  H   3.47391584080673     -1.01930135238872      1.60529718934392
  H   3.33630408150108      3.17179737004302      0.30542476199727
  H   1.50802878087441      4.56519866698648     -1.12006762156231
  H   -0.67161088638147      3.11901315038599     -1.29930744980509
  H   -3.45316618333360      2.13074502784297      0.30641226988691
  H   -1.87574082188422      2.82942984175567      0.36403707248531
  H   -1.28624183916845     -3.43212519357505      0.05139899656713
  H   -2.92746747651814     -2.98554979435457     -0.16054035158120
  H   0.57408561765060     -2.62082152950719     -0.79311206419463
