31
Coordinates from ORCA-job ./opt_b97-3c_parallel
  N   1.21540104413385      5.17556656112213      0.23940013024811
  C   1.17863009943366      4.01347743428845      0.23822013221523
  C   1.10707666573151      2.59174739051791      0.22950613153273
  C   2.28776271426686      1.95657056301959      0.59477607941921
  C   2.74879551804513      0.64861145542529      0.62903544394014
  C   2.25784490541490     -0.59581395086769      0.26719082905213
  N   3.16325299775936     -1.59720659742670      0.20879847595706
  C   2.49290326261208     -2.69011039783850     -0.20426632067321
  N   3.15404850279748     -3.83265683458183     -0.41681237797965
  C   1.10605433115328     -2.46854997333856     -0.37241574334705
  C   0.87551298103012     -1.13113772322761     -0.07246547169927
  C   -0.39268435402951     -0.52992509529402     -0.00433774183777
  C   -1.57732710029095     -1.28348019456132      0.04138506905983
  N   -1.72686410122208     -2.63012304241213      0.19943373139487
  C   -2.70411787691650     -0.42324483556941     -0.12413984409429
  C   -4.03980977431530     -0.82347452058943     -0.07703439417585
  N   -5.15474025548007     -1.15796164645993     -0.02802629830352
  C   -2.25517731232568      0.89002295453174     -0.26910710326468
  N   -3.07441633385760      1.94532139356372     -0.49670727381358
  C   -0.81610230157293      0.89925967099444     -0.14177352563355
  C   -0.18660304589949      2.10609411235569     -0.09914550246462
  H   3.05917709214903      2.66305129552221      0.87766401387286
  H   3.79132704897268      0.57261886157279      0.91107061259546
  H   4.15676937104909     -3.82590052424309     -0.35100520770763
  H   2.70584202559575     -4.62876274397259     -0.82918269609313
  H   0.41061314328034     -3.16740594843472     -0.80188321592845
  H   -0.97281478872404     -3.09910227264679      0.67686404120893
  H   -2.63988955239430     -2.92607742221767      0.50748432580071
  H   -4.05736614255181      1.80322177287302     -0.33746021355592
  H   -2.75634081861997      2.87170609409330     -0.27852267641136
  H   -0.84571244672361      2.93885589890112     -0.31003941001252
