36
Coordinates from ORCA-job ./opt_b97-3c_parallel
  N   3.67064151502542     -0.52175195101468      2.69530151270680
  C   2.94480826474254     -0.33853470359291      1.80487493471304
  C   2.05880868697232      0.01401512597522      0.76198370584841
  C   1.61134447638455     -1.05008866070702     -0.09801602556322
  N   2.39320581584807     -2.09427622165069     -0.29846859831973
  C   1.63911082710210     -3.03030640972093     -0.97589551803124
  N   2.25439797727168     -4.15333434824684     -1.39228805838346
  C   0.31060751277348     -2.64120822305458     -1.11843110397436
  C   0.23231623796020     -1.33746880408065     -0.57525248022493
  C   -0.91394815923508     -0.62412016451884     -0.25705516557872
  C   -2.17107584551171     -1.27784317822311      0.09196014774678
  N   -2.36945168951429     -2.60498149026950      0.13949516480342
  C   -3.10212487603991     -0.29960769162075      0.44747431931835
  C   -4.39127119705561     -0.51125039605059      0.92903211191533
  N   -5.47253678577060     -0.67648092610263      1.33269086717874
  C   -2.47639097720617      0.97650916822837      0.26961312416948
  N   -3.13326261325514      2.13412306776221      0.45065252544525
  C   -1.13336265410117      0.79161384323759     -0.13282751577387
  C   -0.31582045061507      1.83054355285996     -0.68998444794109
  N   -0.99041034039944      2.80183660541347     -1.39554269463974
  C   1.05175867650058      1.95345671942706     -0.52845401464470
  C   1.71760283111890      2.95377543457819     -1.26101450100519
  N   2.23672548685412      3.80586210735560     -1.86471098424442
  C   1.83212479736475      1.36354930454774      0.57351149919755
  N   2.42059079443355      2.27100284685451      1.38061526108044
  H   3.25866848029484     -4.16643412967866     -1.35370193772888
  H   1.81058578953180     -4.75442189906473     -2.06126358352313
  H   -0.44091856615215     -3.13215105834914     -1.71510877255719
  H   -1.55064827703659     -3.19476195463676      0.09822024271161
  H   -3.15041897939458     -2.95028669145609      0.67251769027079
  H   -4.04423559630718      2.12961136842706      0.87400290205589
  H   -2.63698685353089      3.00555597730861      0.40446840042432
  H   -0.43024970643797      3.49850075288793     -1.86197119608592
  H   -1.78097565700709      2.48913153082925     -1.93421439008644
  H   2.39001545711930      3.24326852856289      1.13412514126075
  H   3.13377089117257      1.98312319368335      2.03151409885918
