31
Coordinates from ORCA-job ./opt_b97-3c_parallel
  N   3.22071207159067      1.77559955872623      2.16701764439016
  C   2.47668309198822      1.62956019486268      1.28819215263786
  C   1.53069801675865      1.43594551904903      0.24059138332119
  C   0.99049785680002      2.53093829561924     -0.32599474291683
  C   -0.01583723921953      2.58158837392656     -1.36690115853140
  C   -1.22466498549259      2.00181099598908     -1.34817040132762
  C   -1.76917078728790      1.10310168808273     -0.35609680595297
  C   -3.16922267040129      1.12151447207381      0.02834224283605
  N   -4.00269847439904      2.09392187189202     -0.32769751666448
  C   -3.50553493461710     -0.01124212263364      0.79631554843911
  C   -2.34380399847771     -0.74061516165618      0.92550184508961
  N   -2.10233959147975     -1.77236154702598      1.71945291482071
  C   -1.24046254733329     -0.07222499360439      0.13740250469392
  C   0.02592462155076     -0.64426754633515     -0.07921546012108
  C   0.30560674649688     -2.05300161014295     -0.32426687476377
  C   -0.63535402492935     -3.06865040098802     -0.54832698024374
  N   -1.42624618563336     -3.90879944152443     -0.70283328115346
  C   1.66909328192616     -2.18975281354148     -0.53362417916108
  C   2.27036378435790     -0.91311038303632     -0.37998871231067
  C   3.64622090640371     -0.66105661900542     -0.49707270453359
  N   4.78497172517955     -0.46434905695340     -0.62037012330227
  C   1.26512617580708      0.03830720400709     -0.13131276407328
  H   1.37193557534469      3.49336365299242      0.00000626779114
  H   0.19780802181174      3.26319405172642     -2.18427171897316
  H   -1.88885712976173      2.24197172104370     -2.17621965745400
  H   -3.65930289581765      2.92432921437244     -0.77708002035781
  H   -4.97756636897440      2.06398004990091     -0.08942212007396
  H   -4.44252676901013     -0.18789671401806      1.29670222850273
  H   -2.85552747637408     -2.26812818528729      2.16351674281220
  H   -1.21540324333609     -2.24620627793601      1.66952850510908
  H   2.18180835842905     -3.09576186447562     -0.80677566762858
