30
Coordinates from ORCA-job ./opt_b97-3c_parallel
  N   4.62063772776445     -1.34761323089361      0.39907591546036
  C   3.59914474510006     -0.79237494068252      0.32335401751527
  C   2.42543479912933     -0.04742721659908      0.24528213298223
  C   2.36288255527992      1.38339278580645      0.24069034374865
  N   3.41240911457620      2.18669917054245      0.43243411081754
  N   1.13333949479861      1.85633752445026      0.03610320707088
  C   0.29478422173375      0.77276555023940     -0.05536922901706
  C   -1.06597530604940      0.91561105137818     -0.15791704746036
  C   -1.70209323087930      2.21688639201827     -0.41603471730470
  N   -1.01510176024145      3.33789338117594     -0.73546860929344
  C   -3.07604242277774      2.05210010793998     -0.36535948619318
  C   -3.34165461347527      0.71557832849025     -0.01867694980809
  C   -2.16653058796231     -0.02006442173379      0.09354247565225
  C   -2.14409541182392     -1.33733719925227      0.65349874953489
  N   -3.18301586942780     -1.64409277382946      1.49455548244936
  N   -1.34275984043899     -2.33885387339517      0.39988994966054
  C   -0.29693992763300     -2.38182930708761     -0.43279280917224
  N   -0.33633722364546     -3.37277528465932     -1.35636892267406
  N   0.84752213626608     -1.72305711224099     -0.37808301841115
  C   1.12441988882684     -0.49332769128462     -0.01490457812705
  H   4.33605409425881      1.80508588372471      0.52597067393137
  H   3.30496154841845      3.17841214246193      0.32422027042487
  H   -1.50820716820085      4.21233366854649     -0.71322337379642
  H   -0.03587184141814      3.33258214041825     -0.47403411510588
  H   -3.81209637606603      2.81589293103083     -0.56174324852173
  H   -4.32906455355472      0.30457185920504      0.12758201824415
  H   -3.54963140504703     -0.90620576824330      2.06753282898490
  H   -3.13323429984596     -2.55320478296905      1.92205946907305
  H   0.53220848249049     -3.64728836099298     -1.78066087830617
  H   -1.05983773225610     -4.06302240796455     -1.27018302115951
