29
Coordinates from ORCA-job ./opt_b97-3c_parallel
  N   -4.10939067923107     -1.99404004129257     -0.74609655424713
  C   -2.96049024476734     -1.94934337756373     -0.56792241676737
  C   -1.57689396343972     -1.92410536003873     -0.35522737912310
  C   -0.73938592454916     -3.02617589335992     -0.45920444003815
  C   0.59954180715385     -2.63265597596110     -0.27907048655849
  C   0.67038199967359     -1.25737249375789     -0.13852664653356
  C   1.88555334504831     -0.59490921135302      0.19492569314598
  C   2.85757009839143     -1.44307273950231      0.77753584470878
  N   3.69097832118651     -2.09903357844882      1.25736779975121
  C   2.37070042005133      0.68795796438833     -0.15763826027457
  N   3.71210054677025      0.89203644627539     -0.03461177438830
  C   1.69404720975719      1.77131059376545     -0.77178224147107
  C   0.44188934232906      2.30706994545378     -0.59709790092540
  N   0.20795889848690      3.54018264857652     -1.14682824099409
  C   -0.65776418809499      1.80488105991642      0.18585117679531
  C   -1.60506687206236      2.61447472620118      0.77108971880635
  N   -2.69437269160136      1.90737349786752      1.26011413095251
  C   -2.52071893022167      0.66780917908557      0.88861416912328
  C   -1.23024792363581      0.46783534698444      0.23059037027488
  C   -0.75348275679385     -0.76214135666284     -0.13600449599722
  H   -1.07296322926805     -4.02922671219093     -0.67503863497333
  H   1.44559646584732     -3.29887103698890     -0.27277832598442
  H   4.30049183690185      0.17773452964744      0.35938287006492
  H   4.05803333019131      1.83165743325343      0.01729225289445
  H   2.36238552125128      2.38543312391845     -1.36683172257315
  H   0.89276205623742      3.92419899922963     -1.77413094955754
  H   -0.74404254762571      3.78141038350027     -1.35687353238712
  H   -1.56554501065504      3.68675137755431      0.88691465543596
  H   -3.20759326433183     -0.11282120469820      1.17113357534067
