34
Coordinates from ORCA-job ./opt_b97-3c_parallel
  N   1.75713721388741      4.13618537816959     -1.69608103701416
  C   1.48584166544390      3.17150746047303     -1.10283283135372
  C   1.20088873388709      1.98148834927659     -0.39897170111388
  C   0.14361886994426      2.08175135487580      0.59801915418717
  C   -0.91820906814194      1.27100460409795      0.78005199742813
  C   -1.80046191393058      1.59484058336915      1.85232773658256
  N   -2.50977415631555      1.83280655115811      2.73966425393010
  C   -1.28999743494894      0.09883267170732     -0.01195730965396
  C   -2.59298660422746     -0.20416821122667     -0.37499267049742
  C   -3.73811778813705      0.59456159108967     -0.29607221169120
  N   -4.73761416522535      1.19014954781382     -0.30859670879933
  C   -2.62273661993931     -1.55378795646098     -0.92391090538788
  N   -3.75403445494328     -2.10953605633873     -1.42437931168375
  C   -1.35833404232137     -2.09138852945181     -0.80456339856363
  C   -0.49268204799078     -1.08304628944197     -0.27078877847555
  C   0.84324151784492     -1.25219742627061      0.06777417992478
  C   1.41246257386678     -2.53059020685049      0.56447829323640
  N   0.70456002348603     -3.64071264502722      0.77818795325916
  N   2.69399163001517     -2.43235068763883      0.87575649570637
  C   3.03466271126495     -1.14561060251142      0.56229371193844
  N   4.29620065340506     -0.75032820681714      0.73256220733548
  C   1.93847204473616     -0.36191597757145      0.09434607509599
  C   2.07148683188282      0.92847524621633     -0.54258902103104
  N   3.24188850186995      1.09575039758248     -1.26440263389990
  H   0.18856300277347      2.96425675860712      1.22689620235288
  H   -3.67699913440464     -2.93579494988162     -1.98904661998199
  H   -4.51815609190389     -1.49891501294486     -1.65907198148810
  H   -1.03174631721688     -3.01569974103365     -1.25418678369613
  H   1.12131671297810     -4.37079757006809      1.33026852121876
  H   -0.29991147981491     -3.59458688350985      0.71862502384654
  H   4.58033841601746      0.17268103288413      0.45369316907163
  H   4.98077877225437     -1.41894133060022      1.03689789049784
  H   3.52214649200568      0.29586062337447     -1.80940779171610
  H   3.31718927289844      1.96112406265010     -1.77905267286414
