28
Coordinates from ORCA-job ./opt_b97-3c_parallel
  N   4.01985388567999     -1.00889717643790      1.71716813785640
  C   3.10234680888568     -0.96071232839977      1.00791640992450
  C   1.95010523731572     -0.94410973445458      0.16911738031003
  C   1.40329084628906     -2.14244927875119     -0.13342577021222
  C   0.26025326526127     -2.46051069967066     -0.95281739013498
  C   -0.97034293674398     -1.92120626368003     -0.93763820717270
  C   -1.48761199159997     -0.80319649814464     -0.18945468275398
  C   -2.84894629270627     -0.72976766576550      0.20983809511643
  N   -3.70692949816940     -1.75502764247649      0.15985404168108
  C   -3.19973610571712      0.58688596675059      0.63885747528105
  C   -2.07588099014285      1.35159353364371      0.50195714598858
  N   -1.87318704366654      2.61826424537731      0.88989684361079
  C   -0.96865695118822      0.49882588123351     -0.07481841568642
  C   0.26695051048038      1.01419563885117     -0.42836709701869
  C   0.56419236660838      2.37446761684723     -0.79902304464664
  C   1.92217108132190      2.44341419623666     -0.93173515264292
  N   2.53402741022667      1.25279466070891     -0.58230978110257
  C   1.57315337328685      0.37737021982885     -0.34654691889852
  H   1.93335779867316     -3.00997888500290      0.24661494274658
  H   0.39232903870628     -3.34252616293016     -1.57182233839019
  H   -1.69922815906170     -2.41466020943663     -1.57938919061800
  H   -4.66312549374656     -1.64610008098213      0.44177518889196
  H   -3.37463862062895     -2.68980674061085      0.00575705384667
  H   -4.13079526936009      0.87258316479684      1.10076552763342
  H   -0.93291041589157      2.97622980083978      0.90865541625220
  H   -2.55546040851656      3.08654448133080      1.45809105402645
  H   -0.15151536728910      3.12890389205220     -1.08399964659432
  H   2.51925609399374      3.27375975454585     -1.27548233149382
