30
Coordinates from ORCA-job ./opt_b97-3c_parallel
  N   -4.50542636462605      2.38005059337182     -0.89031190546944
  C   -3.48665305069158      1.93833850065289     -0.54134127360561
  C   -2.26637698174782      1.34355176395500     -0.13353126170954
  C   -1.39404843614485      2.24672876997282      0.49494899631190
  C   -0.05495973699239      2.32050363485080      0.80009320373648
  C   1.06251990112545      1.55930150129386      0.45134346488725
  N   2.26373910473701      2.14897317826229      0.54215426963320
  C   3.17144266872709      1.25354209940389      0.08490655905788
  N   4.45835406807122      1.57681921878390     -0.00881209401937
  C   2.58831322460368      0.00889440915378     -0.26646576069510
  C   3.32786567087003     -1.04831331737723     -0.79189096675155
  N   4.02881079239563     -1.87151773240393     -1.22733417468434
  C   1.20515422708137      0.14211554545841     -0.00361924313607
  C   0.28102583448008     -0.89084007292749      0.06632861775416
  C   0.70664720308642     -2.24666554455385      0.23039869244156
  N   -0.29750392804306     -3.08173934506725      0.42858380784533
  C   -1.43732742338868     -2.33722840170128      0.32963205584692
  N   -2.64684175481193     -2.99359709712914      0.42853891491862
  C   -1.18261321645759     -0.97091935795425      0.10843266419524
  C   -2.19652889893608     -0.06809101880342     -0.32710065667506
  N   -3.26426801082377     -0.62790858517313     -0.92780720069934
  H   -1.90125339381777      3.17751604432688      0.72340823135618
  H   0.24033859917893      3.26173536086793      1.24542073732539
  H   5.13021920297539      0.93098624386584     -0.38333517126134
  H   4.75060782453840      2.50620849488572      0.23394776795958
  H   1.72645215949911     -2.58520224366446      0.30404969840209
  H   -2.51913922429170     -3.94841926044004      0.72802357416007
  H   -3.35826643348429     -2.52196543918872      0.96513396609705
  H   -4.06684642590889     -0.07870297815187     -1.18477296890936
  H   -3.28598174100373     -1.61758839236887     -1.10771451881263
