26
Coordinates from ORCA-job ./opt_b97-3c_parallel
  N   -5.11633772061387     -0.29195846542683      0.06478908292574
  C   -4.00347400923607      0.04450195081823      0.07450278334741
  C   -2.67546863123839      0.48504309612339      0.09528233139879
  C   -2.23119265451197      1.83295876766334      0.32982659069757
  N   -0.93355686792868      1.95155855711443      0.19655648102878
  C   -0.43576090093190      0.66727992300926     -0.06386326256375
  C   0.92664979337512      0.44929328195093     -0.07177876537856
  C   1.92892852376388      1.56983002706201     -0.15388167882738
  N   1.58375950671115      2.83638476267703     -0.25414670220125
  N   3.17795242820864      1.13111038725300     -0.15875863330497
  C   3.06204006045360     -0.22258278944919     -0.01603533262938
  N   4.17251033761594     -0.95197045175429      0.08238460302154
  C   1.72187406709601     -0.70710791021266      0.04894804874864
  C   1.39755146980331     -2.02178448078328      0.51626165005610
  C   0.27527902337919     -2.76171193138013      0.42203264494112
  C   -0.87842027378178     -2.54783159800520     -0.43748154635199
  N   -1.60300485916691     -1.53459033976953     -0.69576482630788
  C   -1.53513086190427     -0.26582530211785     -0.18261535352948
  H   -2.86601220059198      2.67539613139592      0.56034256798623
  H   2.29576247708884      3.54638562292345     -0.28168415742021
  H   0.59080602603428      3.04536546925355     -0.11729956515225
  H   4.14654587635160     -1.95331781472858      0.04220497807377
  H   5.06133194240302     -0.49081874492391      0.00325859171842
  H   2.20547979397264     -2.50212850013138      1.06504470887390
  H   0.31793726836658     -3.75765209763285      0.84822355342644
  H   -1.16897773621760     -3.45002975482882     -0.98119389437429
