27
Coordinates from ORCA-job ./opt_b97-3c_parallel
  N   5.09107743969504      0.82655834236602      0.21206525884603
  C   3.93682955428547      0.69475851509496      0.17243778332002
  C   2.52718494555372      0.53239655301959      0.12308776711162
  C   1.79507644142835      1.55121887782321      0.74228582190498
  N   0.56534408000967      1.95134145334237      0.56581882322189
  C   -0.57914577268861      1.53576872678786      0.11661084526578
  N   -1.51836636646422      2.43837596724896     -0.23256046772847
  C   -2.65049846687805      1.73162701996177     -0.39482768888058
  N   -3.76762306904067      2.34795415898476     -0.78456809232035
  C   -2.51191154831341      0.33500797965572     -0.14376726253885
  C   -1.16800623014191      0.12077089346730      0.08335739201108
  C   -0.48000756613119     -1.10050829136490      0.11534322214014
  C   -1.13271125363573     -2.34985729966538      0.18045644883248
  N   -2.43725761850753     -2.57061580408746      0.53873622350943
  C   -0.25054002529771     -3.37125147314872     -0.26032611937414
  C   0.94011968147980     -2.79301966140177     -0.61594356781632
  C   0.89991716230560     -1.39088004532734     -0.34158889822315
  C   2.07911140470322     -0.69264264094624     -0.42048986745074
  H   2.37104810503893      2.19741186005476      1.40107022155521
  H   -3.74103124124469      3.33672466559992     -0.96070525400930
  H   -4.64125830107366      1.86300319680589     -0.86030008598613
  H   -3.26615019423199     -0.40711820979788     -0.34431866979771
  H   -2.83399453416360     -1.89545586321751      1.17298768108963
  H   -2.65362770713981     -3.51763076278414      0.80181839265019
  H   -0.48677630155233     -4.42452688881325     -0.28928816184419
  H   1.82265824492112     -3.31151288402360     -0.95610010378093
  H   2.88682042378421     -1.27866680093521     -0.84317345820760
