21
Coordinates from ORCA-job ./opt_b97-3c_parallel
  N   -3.85674438247346      1.08051443438301     -0.35028501294453
  C   -2.66427514238784      0.53581387085125     -0.15381671462850
  N   -2.48043754903236     -0.80612336270676     -0.28636472733904
  C   -1.19478548258596     -0.96876263074544      0.01025780138752
  N   -0.67699114648026     -2.13760194539460      0.30102195077382
  C   0.54175982795641     -2.57864302668651      0.42424099593070
  N   1.63516535005167     -2.33190763190035     -0.27724605590141
  C   2.20358079868510     -1.21400462640881     -0.62052250711963
  C   1.95839701315781      0.09930445023476     -0.18471330691352
  C   2.93068272716365      1.09920566227737     -0.25832149581567
  N   2.47976865337483      2.30693679706627      0.16461837453397
  C   1.18600436280299      2.13657079911383      0.44919038957481
  C   0.75658890975660      0.79572866456806      0.28687127458169
  C   -0.58215733658206      0.42851649838874      0.22190178897968
  N   -1.59190896354779      1.29920799650125      0.18112099488695
  H   -3.98190881322315      2.06849038563724     -0.22510093111243
  H   -4.63106425684899      0.50284007363189     -0.62213397491634
  H   0.65176227680498     -3.40254436872313      1.12862769287007
  H   3.06211204123165     -1.33279558745674     -1.27777170356771
  H   3.95351953628581      0.97270398431262     -0.58269893174831
  H   0.55647902019039      2.96161611475604      0.74324095758787
