30
Coordinates from ORCA-job ./opt_b97-3c_parallel
  N   -2.89016806074008     -2.90177350004522      0.86299355469315
  C   -2.48193611634723     -1.86157090317850      0.52700035746248
  C   -2.12354537247887     -0.57965762451954      0.12044102766020
  C   -3.09324899600834      0.41223646582470     -0.18588245714776
  N   -4.41935403204411      0.23702775992606     -0.18647924699061
  N   -2.54703794660578      1.60065647729322     -0.49039964446539
  C   -1.20844080855552      1.46443505512471     -0.34306765228942
  C   -0.44157204558150      2.60940705560820     -0.49805158069368
  C   0.84116914956519      2.95465635893543     -0.10148703965733
  C   1.93853131779715      2.31065272337003      0.42817652191574
  C   2.37458691571046      0.97474837103950      0.49065207319458
  N   3.63116946235407      0.84285452872911      1.03248725270182
  C   1.78719254844419     -0.21104044032803     -0.01540833756606
  C   2.54467569879041     -1.37475443840121     -0.27479927771369
  N   3.92826111939752     -1.51325428474415     -0.29667463746004
  C   1.67043856972421     -2.46034401915173     -0.49842653537577
  C   0.37587719887330     -2.02363745750138     -0.36474889301585
  C   0.35939130918381     -0.62666176253033     -0.10705689166403
  C   -0.85808837142979      0.04647513310966     -0.02316492579248
  H   -4.81979297809237     -0.61616395700134      0.15965703395357
  H   -5.01112735530728      1.03964619449582     -0.30066010034923
  H   -1.04402943082734      3.44263998956952     -0.83672586179409
  H   0.99639955153418      4.02810347631092     -0.15124978978172
  H   2.68615418033011      3.00638418086792      0.79602232830316
  H   4.01218632663516      1.63440452444954      1.51776151926177
  H   3.90696782716742     -0.05528235281606      1.39074643150442
  H   4.22877514640058     -2.35787322893504     -0.75610104755681
  H   4.42789468188665     -0.71277359175540     -0.65141327549378
  H   1.98102905177894     -3.45907627342118     -0.76845650819731
  H   -0.49692668725534     -2.62681573662501     -0.53465334044555
