31
Coordinates from ORCA-job ./opt_b97-3c_parallel
  N   -4.20595124697611      2.84502895525957     -0.27183460918452
  C   -3.26875360647018      2.16613935753088     -0.14416606314955
  C   -2.19007841761696      1.28788190524480      0.01803104178571
  C   -0.83224811258849      1.60041774229811      0.05332884823863
  C   -0.08230045303162      0.40939891110313      0.10528470651474
  C   1.32544912073042      0.47968393553648      0.13764670510804
  C   2.01890542236520      1.62657647141114      0.49128713098066
  C   3.37041757736236      1.48862234369410      0.09539035141361
  N   4.32687017427099      2.42719176856366      0.26458470325254
  C   3.54761182342486      0.23638985939156     -0.52142358761454
  C   2.34459053891204     -0.46344768915462     -0.45527721547568
  C   2.25549686667005     -1.78764412375338     -0.86367819035262
  C   1.36929078484115     -2.81841534744857     -0.58899332313465
  C   0.15965324972819     -2.95758391918818      0.06638223991190
  C   -0.86768300648642     -2.08810451387963      0.45762780137729
  N   -1.86583158880006     -2.67438311907731      1.17997998965530
  C   -1.05189463881441     -0.70294283806160      0.15015335594363
  C   -2.32875561930079     -0.12244213799138      0.09554837601421
  N   -3.56887125109677     -0.78780729101443      0.11670607984593
  H   -0.42586025538933      2.58762266996384     -0.07235120881819
  H   1.59912069837500      2.49898952328799      0.96373663534386
  H   4.15726661192972      3.19715907284646      0.88553720416112
  H   5.28986651924555      2.18525827205505      0.11857949534280
  H   4.48089590808201     -0.16429706155398     -0.88516931082470
  H   3.15237381280618     -2.12689278742373     -1.37189714063915
  H   1.76583892311730     -3.78056897984675     -0.89851876907062
  H   -0.07264081107789     -3.99628836415770      0.28293336482407
  H   -2.74207141211622     -2.17611489661415      1.27592156469157
  H   -1.91990428681622     -3.67721746415590      1.19886077284380
  H   -3.68288605200983     -1.41879596223888     -0.66563195106758
  H   -4.33754482466963     -0.13166934712795      0.10991303908144
