30
Coordinates from ORCA-job ./opt_b97-3c_parallel
  N   3.15002975873704      2.53977336858458     -1.13626426733078
  C   2.22668529897423      1.99086538728677     -0.68517752630167
  C   1.08614964245113      1.36026650354792     -0.13658418411934
  C   0.05399025793664      2.23547520502806      0.25018679860230
  N   0.33355362318321      3.57948252107800      0.21188271320269
  C   -1.21148752506887      1.95435484030045      0.81651112542897
  C   -2.15757930260395      0.97682147276060      0.60359885674015
  N   -3.41498589657578      1.24162603439887      1.10973434934716
  C   -2.08839319677991     -0.24818924108854     -0.14131416436853
  C   -3.22427463535097     -0.85938352626203     -0.65417527637852
  C   -2.91226071474251     -2.18801604920997     -1.05751481783136
  C   -1.60377384703497     -2.44018831227641     -0.74547202043039
  C   -1.01727247203366     -1.24390036862624     -0.20938855075661
  C   0.32405102616226     -1.20226517922542      0.12295431252701
  N   1.02459692770469     -2.35920216694877      0.25288602842759
  C   2.31260035622506     -2.01112199706910      0.32541459332482
  N   3.26563610350077     -2.93405692858074      0.50988998124812
  C   2.51940710812404     -0.60302783753739      0.22462473059254
  C   1.27522109716273     -0.03100258944638      0.13298651658557
  H   1.20087008927843      3.88078188616726     -0.19983227310806
  H   -0.43784194684737      4.20768440073520      0.07979740840531
  H   -1.57134225375518      2.78544424695189      1.41499403658467
  H   -3.50584511282792      2.03300007002478      1.72283441288271
  H   -3.95946569133598      0.44334577484926      1.38496143912759
  H   -4.19150246192938     -0.39067498889831     -0.74826446369712
  H   -3.59521753097113     -2.86763954044684     -1.54393507610661
  H   -1.04289093884345     -3.33888798026939     -0.93203328267416
  H   3.00670235903325     -3.90436354651061      0.50266319283735
  H   4.23766466414853     -2.69547342794742      0.46626974650529
  H   3.46592624267851     -0.08867366016917      0.22250040103247
