31
Coordinates from ORCA-job ./opt_b97-3c_parallel
  N   -0.95715118864259      4.86880084910268     -0.94689983946503
  C   -0.78041467860393      3.76604902521006     -0.62210205103176
  C   -0.50384242243014      2.42458580934007     -0.25418671437429
  C   -1.58619513479043      1.78774937987552      0.37433819924019
  C   -1.99626887165368      0.47871154068111      0.55170143777883
  C   -3.15340359585042      0.35792311873795      1.37216442829145
  N   -4.05510655286854      0.29415796518733      2.10084320089443
  C   -1.52925029389330     -0.72484540226721     -0.05292686888275
  C   -2.33361433684033     -1.83454394000266     -0.30613853269616
  C   -3.72675274786973     -1.96924025046407     -0.24250491830741
  N   -4.87393213495354     -2.15259390115532     -0.25851337485811
  C   -1.46711695858166     -2.87465618428218     -0.77548539235541
  N   -0.21057177309807     -2.51297308951058     -0.79725974814214
  C   -0.16218050855879     -1.17951083876960     -0.38293049896165
  C   1.05840920606798     -0.58651550528707     -0.20548200906148
  C   2.29746446327780     -1.40358799273008     -0.10296663220612
  N   2.36730464450123     -2.71815486608945     -0.24424733603453
  C   3.34418350937831     -0.54830740397870      0.25797876635195
  C   4.64744218384407     -0.97258651768876      0.53301654683895
  N   5.71650633431890     -1.38063699924780      0.74376712298171
  C   2.84087596650436      0.77145880627222      0.26828742143402
  C   1.48133809869375      0.80299908369398     -0.01566460263083
  C   0.85054741036700      2.02938291211328     -0.40626836562896
  N   1.69338284032100      2.97527019059617     -0.87006018418166
  H   -2.32000086987157      2.49778175224203      0.73697322308318
  H   -1.78600596420197     -3.85540519895744     -1.09712267149866
  H   1.52681115541164     -3.19432742974859     -0.56544233312789
  H   3.23883443926449     -3.19974653571396     -0.09858458050684
  H   3.45448068640776      1.63213063532164      0.48125689388256
  H   2.61368338830984      2.72348964576037     -1.17659135368963
  H   1.35761356554509      3.89159517706034     -1.11772292063516
