33
Coordinates from ORCA-job ./opt_b97-3c_parallel
  N   -0.63251888527598     -3.90289511653255      0.92015746455987
  C   -0.31381807301380     -2.64495983603205      0.40511453012658
  C   0.88918245557637     -2.09477998739150      0.71515793647956
  C   1.58504457938896     -0.97692130132630      0.15441898403748
  C   2.95805462274678     -0.92538725029105      0.09060611277481
  C   3.36855896286779      0.37250656754532     -0.36279264545140
  N   4.67597646646567      0.71763132309560     -0.58945514191592
  C   2.25106123862229      1.17904958793412     -0.48765176108636
  C   1.09990098451844      0.38692910026901     -0.18124018612638
  C   -0.17829850906099      0.87307716021150      0.00792968829290
  C   -0.47099500928688      2.25412478936098      0.45912777449301
  N   0.45551445740157      3.19897939288560      0.72181371275398
  N   -1.75540261560708      2.45245849386555      0.68508164942541
  C   -2.36667009412863      1.26687555140618      0.34474952958309
  N   -3.71197237376031      1.17934814284406      0.44870206228078
  C   -1.46602707130232      0.25768487352275     -0.03701172727183
  C   -1.85018895906844     -0.97120752719519     -0.70032513871072
  N   -2.98542020856508     -0.82682582824465     -1.53105852028960
  C   -1.29660966115579     -2.19287980454463     -0.56187729125001
  H   -0.04857163341927     -4.21000828987782      1.68174542822655
  H   -1.61090444953721     -4.03134067818925      1.12386598421780
  H   1.49110108345548     -2.67180107419312      1.41409488218164
  H   3.62804943359585     -1.72944908714509      0.35811422358644
  H   4.82899776602279      1.53849820903040     -1.15051641466032
  H   5.29892264616907     -0.03697747768660     -0.82265355820577
  H   2.23201324895555      2.14739612468760     -0.96326456872354
  H   0.16010790228187      3.94141136317884      1.33428623129548
  H   1.40813801062571      2.87914062397915      0.81809084983063
  H   -4.20915801878153      2.05254545344335      0.48872911841480
  H   -4.14831620836736      0.41911192836790     -0.04956433705582
  H   -2.91284053213098     -0.02292779524725     -2.13940568976887
  H   -3.19044471763296     -1.65553652216453     -2.06939016457064
  H   -1.70020420639979     -2.99519648886590     -1.17432877597397
