35
Coordinates from ORCA-job ./opt_b97-3c_parallel
  N   -5.61223556150918     -0.72211630987316     -1.65701454608747
  C   -4.53502935821917     -0.73623653640758     -1.21773336312563
  C   -3.24230072281170     -0.67279880437246     -0.68869269062335
  C   -2.37620361474871     -1.73685537063714     -0.36262068492669
  C   -1.13365871732399     -1.26133737558689      0.05560381831794
  C   -0.19999617626230     -2.10019801412024      0.79022793170990
  N   -0.78418325609427     -2.97215478053300      1.64525179969601
  C   1.17123701770004     -2.12989629305632      0.61415541807170
  C   1.91292792736339     -3.03520644637572      1.39753401855208
  N   2.48088907341298     -3.81152324487532      2.05406883902653
  C   1.88158110414842     -1.50167722991724     -0.49299135378217
  N   2.70750247589293     -2.30621218220385     -1.17826552135412
  C   1.83555901249007     -0.14065008104926     -0.79803041211057
  C   2.59865630177101      0.27039777007167     -1.91212670472147
  N   3.21854091599424      0.52582063137101     -2.86332384911921
  C   1.23609321218228      0.89050390905402      0.00032268578858
  C   1.86180287665083      2.11287441773082      0.25941795657625
  C   3.21730977366769      2.41277682853838      0.05397235894024
  N   4.34168797671353      2.67107503831398     -0.08200017184236
  C   0.92301884895258      3.01256714416961      0.83751192846645
  C   -0.31723184074422      2.40781027792304      0.87744205698583
  C   -1.44014313468210      2.94043095352176      1.52160338507135
  N   -2.40396575365556      3.38120847589236      2.00367924551663
  C   -0.18292269171531      1.05956781218431      0.36094696841032
  C   -1.19052214964738      0.16857929715007      0.06750131956304
  C   -2.56745564086314      0.52322643990065     -0.40393408515290
  N   -3.02057279649649      1.73232656990810     -0.70455457815762
  H   -2.65546954479184     -2.77812482228024     -0.40721011741430
  H   -1.70814248596526     -2.77345004321654      1.98269483905651
  H   -0.21627067004305     -3.57904844942598      2.21427989376492
  H   2.79131304587051     -3.27640708138045     -0.93403130588112
  H   3.36539157766149     -1.93144097428442     -1.84278378799886
  H   1.16227182434758      3.98593670561368      1.23240270105831
  H   -3.95342514299901      1.81868349158115     -1.07726265502080
  H   -2.62234485164629      2.56505179237040     -0.30431180405479
