29
Coordinates from ORCA-job ./opt_b97-3c_parallel
  N   -3.89103434283008      1.98203839734709     -1.13792584917206
  C   -2.95562840439347      1.43905419748356     -0.70027788976008
  C   -1.84754275630061      0.74592514676869     -0.18766965832918
  C   -1.05883614715806      1.46483749917362      0.79571741237113
  N   -1.75255695270639      2.15385546075782      1.72817033738866
  N   0.23084020839211      1.63220974026153      0.81654837881204
  C   1.26229884613732      1.07197397276234      0.22849829279890
  N   2.34764570401230      1.79179550907574     -0.05675266041348
  C   3.30155754440118      0.88021527984781     -0.39876318928262
  N   4.49656563618779      1.31894692330486     -0.79837588026038
  C   2.87401529050008     -0.46339937217649     -0.30248558005950
  C   1.53530306973970     -0.41128616201422      0.03737344155893
  C   0.65508390755623     -1.47554810576773      0.23872848202372
  C   1.10212400769105     -2.79324262003581      0.52965706965948
  C   0.01556314131974     -3.64427813157641      0.55580202584591
  C   -1.13588902540031     -2.90461906297943      0.21334715773665
  C   -0.78904290181054     -1.56021947133184      0.03789511162602
  C   -1.72654116644868     -0.61680848385944     -0.50146093192110
  N   -2.68564890273979     -1.15514189753321     -1.29297994718005
  H   -2.75578920619959      2.14578255528813      1.72404820048271
  H   -1.28132175586897      2.88539368312472      2.23122188032614
  H   4.65701149048332      2.30883972245428     -0.85394148935783
  H   5.23737076711760      0.68970638004939     -1.04215457888631
  H   3.44218523725365     -1.33888745852933     -0.56766756512760
  H   2.12326026515217     -3.04684442608395      0.76563139413130
  H   0.03000775656460     -4.68961441670270      0.82386403844801
  H   -2.14009279284547     -3.29695620748029      0.16724436922318
  H   -3.41217454999354     -0.58189506554458     -1.68562719477225
  H   -2.51623634781333     -2.04925408518421     -1.71193212451030
