29
Coordinates from ORCA-job ./opt_b97-3c_parallel
  N   1.67965064883309     -4.09331279444989      0.26968450444063
  C   1.37929357546979     -2.97983943042068      0.11944964709265
  C   1.15421629758787     -1.58778800868010     -0.00886517041382
  C   2.35443439770516     -0.78484836564527      0.08305988010204
  N   3.39018790731746     -1.32873616765738      0.75048536316422
  N   2.61902795370633      0.33659461290095     -0.54529321570624
  C   2.00869481171345      1.47520943686882     -0.74488150670054
  N   2.58249030492038      2.29713626027093     -1.64946003109746
  C   0.90326527338989      2.00116842568835     -0.00979238333334
  C   0.78471906239607      3.32476820381398      0.39021138564875
  N   -0.39773644780626      3.56746713760859      1.02870425449159
  C   -1.08371159137621      2.43162157471800      0.97819959848206
  C   -0.34729896700073      1.37212795203164      0.36382118674869
  C   -0.86759399365815      0.11532782008442      0.05668142010352
  C   -2.22731119648745     -0.22043085571749      0.00272890390043
  C   -3.36833642319723      0.57630265756606      0.08368426920835
  N   -4.38433030083472      1.14430242399756      0.13122626293354
  C   -2.28849541041017     -1.61686059060915     -0.30623431597984
  N   -3.40033246080721     -2.31608483896650     -0.50206297692649
  N   -1.07658160715078     -2.18070216867018     -0.41024949840194
  C   -0.17352885076667     -1.20544291387224     -0.19430784834224
  H   4.29239554631195     -0.89955609387105      0.64947580159156
  H   3.35067408512050     -2.27851233692209      1.07878485156920
  H   3.40261465932438      1.99270472593500     -2.14310746050086
  H   2.08273767942793      3.09930996445992     -1.98210866512282
  H   1.53095344378562      4.10017733889447      0.29711958882550
  H   -2.06799226844182      2.35567084653406      1.41129025090335
  H   -4.30494443154228     -1.88591874609828     -0.42643398612053
  H   -3.33468009123003     -3.29053372899235     -0.73713101556014
