32
Coordinates from ORCA-job ./opt_b97-3c_parallel
  N   -4.96575592592102     -0.72444806109648     -0.74013261317679
  C   -3.83950625692294     -0.54319171166430     -0.49764362390537
  C   -2.49865690479186     -0.32059737957985     -0.19704614804763
  C   -1.50714246138282     -1.28409052665818     -0.06533109812654
  N   -1.66296700581872     -2.60445637150676     -0.22880035868172
  C   -0.21433162192145     -0.60377721981218      0.16438378393818
  C   0.97405708962095     -1.28270876857627      0.31385784794986
  C   1.10847607167552     -2.64837813165120      0.74355178413111
  C   2.42055523139238     -3.02141117512795      0.57028784814416
  C   3.14510704802846     -1.95158394204704     -0.02450483482157
  C   2.32580074534932     -0.84670172143156     -0.15184051415479
  C   2.68828553666519      0.31516627325950     -0.88287131703702
  C   2.27388433274925      1.60971084128918     -0.73653012959667
  N   2.67580744621858      2.57700957524410     -1.63783390996638
  N   1.57211655867660      2.15479353514186      0.31067018911284
  C   0.37759324502388      1.85292744081782      0.66280760541273
  N   -0.20922783526082      2.67644805591749      1.62202841137168
  C   -0.49419375180745      0.80373957370122      0.15493242206499
  C   -1.87490023048126      0.96730632288275     -0.01425060092695
  N   -2.56773028163013      2.11951230242312     -0.04165976742560
  H   -2.51682243249063     -2.94657761491067     -0.63614953202522
  H   -0.83426222482301     -3.16828419732255     -0.34015713331663
  H   0.37586441982879     -3.18920540971255      1.32140490694497
  H   2.84861124285295     -3.96531132616604      0.87574962637228
  H   4.17771940205335     -1.98927689914670     -0.33600720687894
  H   3.47028944896707      0.16293803652155     -1.62087043261980
  H   3.44833401617003      2.33399522502464     -2.23582121836877
  H   2.74345058812577      3.50142798401717     -1.24474871930742
  H   0.45398005580602      3.31113887387972      2.04072205213429
  H   -0.77324733282969      2.19235557840661      2.30332633134768
  H   -3.57129654577525      2.08988661772260      0.00097885752931
  H   -2.11220510094722      2.95652571546097      0.28294937032988
