24
Coordinates from ORCA-job ./opt_b97-3c_parallel
  N   4.53425973157955      0.78774447830294     -0.00407290778512
  C   3.39272007995175      0.56654907291237     -0.00355287637812
  C   2.01124084514231      0.23402462955273     -0.00276735533422
  C   1.18508902938811      1.36288978300088     -0.00117299411217
  C   -0.16058455511586      1.65484038299807     -0.00017289526351
  C   -0.57389503930662      3.00851395458372      0.00068717315480
  N   -1.90579946661828      3.14938572606996      0.00093674960105
  C   -2.41826974917768      1.90240742838425      0.00033585751386
  C   -1.42536218486633      0.90603829871339     -0.00052230614306
  C   -1.71198339968680     -0.45279812236146     -0.00005494441503
  N   -2.97462454550077     -0.90228839838927      0.00097469716714
  C   -2.85283920909001     -2.24959847859947      0.00040006909181
  N   -1.62455984985895     -2.75938216969142     -0.00100474395904
  C   -0.80830404834827     -1.66029367053721     -0.00142652353358
  C   0.53908800231785     -1.90116090943263     -0.00290721580066
  C   1.75330179417381     -1.17054606071935     -0.00391603242291
  N   2.84433258952445     -1.96957760477858     -0.00603108041907
  H   1.77890179419712      2.27111851089832     -0.00060597322734
  H   0.08227639876833      3.86756529433068      0.00101589608362
  H   -3.48093671536627      1.72607666977099      0.00050575228332
  H   -3.72747653914400     -2.88499378140948      0.00109402806241
  H   0.70514577896759     -2.97300881159995     -0.00368286685713
  H   2.74595542911800     -2.96724391529327     -0.00661366753796
  H   3.77703837825098     -1.59352343000620     -0.00665601616910
