29
Coordinates from ORCA-job ./opt_b97-3c_parallel
  N   4.24065945078081      1.12222196251136     -0.62965205502873
  C   3.02375317444779      0.61870682016375     -0.36361339337294
  C   1.90834539852576      1.35058672386200      0.11055034081508
  C   0.84021544549399      0.45796445898750      0.12295874336656
  C   -0.52083639054229      0.73575054691055      0.23998511990143
  C   -1.01712080966491      2.03265931809271      0.56016050807671
  N   -0.29147519585446      3.04580871314561      1.13687581327346
  C   -2.33909849243653      2.16311964904718      0.12104103181399
  C   -2.72745093370652      0.96876374882262     -0.48276894769689
  N   -3.95316593719664      0.76607978780095     -1.07009952189985
  C   -1.66195221259043      0.01722041653794     -0.37675476582952
  C   -1.87342556966416     -1.30727500640725     -0.69788416121201
  N   -1.30165515581526     -2.43239367429310     -0.30315019961598
  C   -0.13406896354107     -2.57848787891286      0.30634619315097
  N   -0.10927889626476     -3.50780424266565      1.29884962152729
  N   1.06773478175545     -2.09481808486516     -0.01314827376720
  C   1.51241656019180     -0.89126553663013     -0.19751629710393
  N   2.80012898901342     -0.69655474597744     -0.54606694788963
  H   4.88395020965407      0.54118504473078     -1.13770853502209
  H   4.38816466698342      2.11365275239003     -0.64527062898414
  H   1.85587387733997      2.42490845749610      0.15341001058092
  H   0.45870941272033      2.74216270762459      1.73753447545097
  H   -0.84411334802497      3.77588989470499      1.55466488762813
  H   -2.95661204089275      3.04249243356081      0.23417012551897
  H   -4.67960692670531      1.39339233109112     -0.76988267878912
  H   -4.27675099972491     -0.18367521868822     -1.12084092751750
  H   -2.76046726840515     -1.50199861922354     -1.29809358246074
  H   0.78455693086381     -3.90352886338776      1.53104067744227
  H   -0.91612133884061     -4.10037542682978      1.38272952684362
