28
Coordinates from ORCA-job ./opt_b97-3c_parallel
  N   -3.35168872280565      2.36609684955616      0.98831202735594
  C   -2.41224200622074      1.79968164154809      0.60176966299282
  C   -1.19090971706219      1.23811637080604      0.14734151031632
  C   -0.18470080858029      2.19647938989333     -0.18106787585242
  N   -0.58373415952820      3.49569619135548     -0.12166092672592
  C   1.12142651307540      2.04118851985774     -0.68670892668527
  C   2.13479656863378      1.10906279251468     -0.54373145043402
  N   3.36760436070927      1.51358250419922     -0.98405458326516
  C   2.13249355171282     -0.18814961458733      0.05541641449124
  C   3.28600842860853     -0.81711028915933      0.51318872456118
  N   3.08059459087937     -2.12853251742024      0.84704563938925
  C   1.81681667128913     -2.38527619344978      0.54925019999478
  C   1.12142267954363     -1.22651205494245      0.07827179972186
  C   -0.23981996299883     -1.25045699043642     -0.18160223719873
  N   -0.90903315291364     -2.41053326418365     -0.30338543119216
  C   -2.20469094361363     -2.04816051662507     -0.27391477109315
  N   -3.19192781433975     -2.93134871563910     -0.39605160360780
  N   -2.47252930625505     -0.72148258977842     -0.12643947819449
  C   -1.27070655505869     -0.14529790229023     -0.09934924002569
  H   0.10429686910157      4.22382903285568     -0.11447662785189
  H   -1.50703150383693      3.73537707952600      0.19631661126178
  H   1.45379278036646      2.94522921003120     -1.18735580616821
  H   4.02376794094667      0.80529685491491     -1.25684548020898
  H   3.44823563106726      2.38878462583004     -1.46924091885856
  H   4.25635272138098     -0.36816636045011      0.66397630924189
  H   1.36484847663132     -3.34787144519167      0.72576586043352
  H   -2.98197447130969     -3.90577347919995     -0.50681352906659
  H   -4.14500249952390     -2.62114725363479     -0.35648972892940
