28
Coordinates from ORCA-job ./opt_b97-3c_parallel
  N   5.09267699443657     -0.23617166360586     -0.69321792009147
  C   4.00482767681629      0.12949732581779     -0.49485768238959
  C   2.69378361066061      0.54732529067009     -0.26170828566748
  C   2.25921052949506      1.86159140710510     -0.05227286265007
  N   0.95806056301269      1.95309671128927      0.19748223597843
  C   0.43131396853822      0.67308122102506      0.13845927264335
  C   -0.93131111535866      0.51089251432229      0.18421338480346
  C   -1.83265981329971      1.63108178185119      0.23353495755073
  N   -1.47977481310520      2.90735121567491      0.45011854410075
  C   -3.13924564790713      1.17977328021392     -0.00583759616522
  C   -3.13812928689840     -0.19846671367389     -0.17916732149508
  N   -4.25824434544528     -0.96112877457836     -0.38214456460603
  C   -1.81415248943789     -0.70565243434928      0.00433270059664
  C   -1.62239168282686     -2.04190050727911      0.18402115308146
  C   -0.51939834244674     -2.89148908555804      0.41928867446906
  C   0.83362000946817     -2.73305442588736      0.28319136560425
  C   1.68527455298157     -1.66345795071687     -0.03738246810087
  C   1.55471961450658     -0.29525260137995     -0.08859824187183
  H   2.88239918834746      2.74421871504774     -0.07397683712126
  H   -0.47431543532475      3.08187857539042      0.39744416206861
  H   -2.13563820837683      3.63904709894097      0.24284593915904
  H   -4.00976430932721      1.81759367625255     -0.06163471412695
  H   -5.08819832223392     -0.45343169035583     -0.63488904666204
  H   -4.14071039893081     -1.79305934575412     -0.93423649449285
  H   -2.55131804323416     -2.60432052816621      0.18000064104533
  H   -0.81738633129707     -3.90351639903791      0.66561321325751
  H   1.38316848293472     -3.65697878936964      0.42987161969893
  H   2.70896258755273     -1.98522784518885     -0.19421948371687
