29
Coordinates from ORCA-job ./opt_b97-3c_parallel
  N   5.39032966474601      0.27276581751971     -0.02498195985922
  C   4.25733370316907      0.53213087444668     -0.03710658650279
  C   2.89361418455080      0.85024072719370     -0.05045706539915
  C   2.34175201142584      2.15935853733135     -0.11767565398439
  C   0.96808160885936      2.10551379891711      0.00268992445553
  C   0.13747430063235      3.22854553234657     -0.08733392431463
  N   -0.54716602254364      4.16745002458098     -0.14895258193242
  C   0.57278563642025      0.71120354739544      0.07734099034743
  C   -0.71338165735020      0.22929871996588      0.08742890136855
  C   -1.86033024332368      1.06869011058147      0.38261578098334
  C   -2.99996012348804      0.34603052424287      0.19969817277766
  C   -4.33102912425327      0.72351088163952      0.42858207700802
  N   -5.46108661323361      0.94475999408100      0.58505221074167
  C   -2.62594541669696     -0.97911989849288     -0.28493641331714
  N   -3.53647727401921     -1.89219548585101     -0.65195634060665
  C   -1.23674401784337     -1.07540048345842     -0.31328478941708
  C   -0.58972620930208     -2.13978202148085     -1.01572497070091
  N   0.55267124381393     -2.69997583770607     -0.84347693963522
  C   1.38169022433085     -2.41271372644386      0.21783143317918
  N   1.59200808697779     -3.46959046143373      1.03170849006108
  N   2.06826337415727     -1.33341521334979      0.44335555807683
  C   1.85340801014368     -0.07200456732221      0.08502410303403
  H   2.91459674957396      3.06195625702898     -0.25419448968671
  H   -1.81655715257341      2.07880486315238      0.74437775890713
  H   -3.28419495998467     -2.84976250871714     -0.80838813440478
  H   -4.51714986789804     -1.68655424888660     -0.57367275923194
  H   -1.16515933644010     -2.55782331211163     -1.84505281616449
  H   1.33336635187365     -4.38120981651084      0.69958849086208
  H   2.36323667297624     -3.40756639385660      1.67382124265539
