34
Coordinates from ORCA-job ./opt_b97-3c_parallel
  N   0.61815901815656      4.80859914150127     -1.66951658544355
  C   0.42309927957144      3.78999960629269     -1.14530268124134
  C   0.19760824010574      2.55057812233960     -0.49150669404409
  C   1.20481267248542      2.17953336753017      0.48222724937319
  C   1.69767653084786      0.95966863421962      0.77421043780380
  C   2.58764229593673      0.86276131400410      1.88087177642670
  N   3.29239036994969      0.75911527051034      2.79761396048956
  C   1.49058079812613     -0.28487871472171      0.02492628875586
  C   2.52659049082402     -1.12716684320512     -0.31032856810968
  C   3.90575029544932     -0.91264167138393     -0.20571666526791
  N   5.06503980735095     -0.82244315534440     -0.19709541109558
  C   1.96989348430825     -2.36730602112797     -0.85711951397343
  N   2.75668258493114     -3.35121701059039     -1.33908743982000
  C   0.60027413040488     -2.29575358310549     -0.76305536231660
  C   0.24962695723725     -1.00194730043394     -0.25057438532929
  C   -1.03669771805535     -0.54333995951900     -0.02868999605557
  C   -2.16519513276051     -1.45540420645630      0.22190335027350
  N   -2.05473556365601     -2.76503920361940      0.46518983412846
  C   -3.34214940381573     -0.71645230530923      0.26037314512060
  C   -4.61262277927026     -1.19500831201157      0.57282631237440
  N   -5.67764432106353     -1.59312225929563      0.82788392714284
  C   -2.98895017031393      0.65374336142935      0.02583102894286
  N   -3.89225877797499      1.63517220303103     -0.06437113966987
  C   -1.58766291546061      0.78216095974906     -0.12042253119702
  C   -1.03140076667199      1.97495879435998     -0.64757491171639
  H   1.60836140267566      3.01146471207017      1.04856993426158
  H   2.34932354550373     -4.11713007796158     -1.84294791534300
  H   3.72666297791861     -3.16186483619947     -1.52278612466073
  H   -0.08489498595753     -2.98327123963369     -1.23049506395734
  H   -2.84566634793044     -3.26679491564838      0.83218843023916
  H   -1.14159255765208     -3.15697946870955      0.62491599062120
  H   -3.61311950854351      2.59800702579215     -0.02162343010277
  H   -4.86952004671331      1.43713299725169      0.06017032107070
  H   -1.71915995284314      2.56264223799587     -1.25084086208050
