28
Coordinates from ORCA-job ./opt_b97-3c_parallel
  N   3.74578363581249      1.77005167658548      0.29295907248865
  C   2.63536511970670      0.97885654733609      0.10663257671619
  C   2.91103930860311     -0.36935558888913     -0.12695116438316
  C   2.13325196517942     -1.51163163490826     -0.21118274333077
  C   0.79558046523013     -1.83590886602668     -0.11100958166192
  C   0.42568729526969     -3.20132926860141     -0.07929657134378
  N   -0.87172632304961     -3.38889075601679      0.14580075456244
  C   -1.42149800371227     -2.14787689159524      0.22792255221032
  N   -2.77385099563787     -2.04621496668115      0.45167488064712
  C   -0.47291374213700     -1.11038503056455      0.05824661037968
  C   -0.80041420865338      0.24918340485206     -0.04525476713019
  C   -2.07933757277597      0.76480658589922     -0.17935440684259
  C   -1.95722120542105      2.17785252056775     -0.15225336669741
  N   -2.96750105589532      3.06110866358300     -0.25499946965233
  N   -0.70183026760077      2.60430361196302      0.01144389721125
  C   0.07989018357281      1.48316327110363      0.05101249032777
  C   1.42581194398427      1.71251790800002      0.18297389402534
  H   4.64350059280736      1.39799439161369      0.04072582756896
  H   3.65201361654804      2.76276938737661      0.17789226294350
  H   3.97273508239946     -0.57762917206817     -0.20841908041003
  H   2.74311787689998     -2.39825415656190     -0.36165096743640
  H   1.10411584880541     -4.03761220168736     -0.17717698430577
  H   -3.05186357400115     -1.25049029523326      1.00617067644775
  H   -3.15329040410141     -2.91306104126852      0.80142735077583
  H   -2.98021589684872      0.21793978890270     -0.39330186396313
  H   -2.72538027807887      4.02788418242920     -0.38453614733366
  H   -3.86421097155370      2.76084115435189     -0.58843859628608
  H   1.59140684924960      2.77717428593649      0.30867789657049
