28
Coordinates from ORCA-job ./opt_b97-3c_parallel
  N   5.04852572973423      0.36239083327361      0.18887841117148
  C   3.95599597244711     -0.00606912881774      0.03390825221931
  C   2.65672235554471     -0.48768681146978     -0.16517737275612
  C   2.32507105112922     -1.79703468096818     -0.69216680718609
  C   0.98113915303480     -1.96600980299173     -0.61181523258989
  C   0.38434534885868     -0.73029041139138     -0.12146011260979
  C   -0.96890399280953     -0.50353953553608      0.01697953200641
  C   -1.96209386753868     -1.61409799650944      0.22945270004095
  N   -1.59541653557156     -2.87181856255726      0.53904319158830
  C   -3.22514731575084     -1.10010509081581      0.16311204847530
  C   -3.08772801647225      0.30636425730859     -0.05292355631065
  N   -4.12902704480878      1.13597951169569     -0.21030501346986
  C   -1.72657218498218      0.69212829423897     -0.10503478094946
  C   -1.32714927935814      1.97887744348080     -0.59560059227266
  C   -0.20979154087333      2.69687030806003     -0.37567077232828
  C   0.83452742775526      2.42353552481875      0.59577995695625
  N   1.51951705543233      1.37748171894174      0.84347237325020
  C   1.48385713121115      0.18654666512101      0.14816719732823
  H   3.04439898350239     -2.48893087304735     -1.09875762714786
  H   0.43031959790103     -2.79524923252620     -1.02315686669932
  H   -2.28333734883777     -3.50774725096985      0.90009083719905
  H   -0.64316261198628     -3.04416467775772      0.80979306422598
  H   -4.14906792240423     -1.61819062500306      0.36464617967297
  H   -4.00190847601240      2.13065677257663     -0.18032107935087
  H   -5.07066083376800      0.79277796926481     -0.18683144419439
  H   -2.06204449073299      2.46195047828835     -1.23823276488858
  H   -0.16548797749274      3.68861934415513     -0.81248243864212
  H   1.08457973644933      3.28378379043754      1.22144860966275
