31
Coordinates from ORCA-job ./opt_b97-3c_parallel
  N   -3.30374751018989      2.72473565814257     -0.55002331545722
  C   -2.79491405743478      1.69568729508569     -0.33890735837469
  C   -2.28619381309856      0.42422543765179     -0.09164543544837
  C   -3.08170023695680     -0.73658866012682     -0.20311465408798
  N   -4.40125166118023     -0.74001101559358     -0.43679644514663
  C   -2.27179980279734     -1.89042402287275     -0.01227109728736
  C   -0.96764567023877     -1.49316159357535      0.17271439501531
  N   -0.02030536301135     -2.34285260981938      0.61168935654615
  C   1.22435478883744     -2.47160846948336      0.27604700421467
  N   1.86548130926398     -3.55528787965892      0.82348204834261
  C   2.02248890665408     -1.74773360936600     -0.68771420512342
  C   2.24111853857241     -0.40654389131078     -0.73634860096949
  N   3.29505732832620      0.05640725320623     -1.52304628345115
  C   1.57332121923183      0.62916065008801      0.01803903971491
  C   2.15770791101685      1.84265352113970      0.39327118721740
  N   3.44576780057074      2.25799044892528      0.31098146578994
  N   1.22992932604102      2.75759330404681      0.88118279374981
  C   0.06127318839374      2.18867409720403      0.73715198524949
  C   0.16080808436823      0.82848985557651      0.24035236097591
  C   -0.93416156837559      0.00544885039208      0.09721628136331
  H   -4.87152749944229     -1.58940115806662     -0.68745824673522
  H   -4.87275331864826      0.12544411304128     -0.63861912902273
  H   -2.62623660042754     -2.90477168134458      0.06928993094290
  H   2.85841873477368     -3.48823711064827      0.96045182939164
  H   1.35209154257806     -4.03701329137315      1.54356624744231
  H   2.65472261391113     -2.37743322476751     -1.30476487973820
  H   3.12648344826927      0.94572511599995     -1.96645044476001
  H   3.67298584765055     -0.62106778810838     -2.16525701899042
  H   4.16563328683582      1.56795735039895      0.18904830224726
  H   3.67330125515343      3.07518888041015      0.84999541228181
  H   -0.84393429414726      2.67224791930662      1.06908517760727
