27
Coordinates from ORCA-job ./opt_b97-3c_parallel
  N   3.61764165460095     -0.46679799236032     -0.30871267027607
  C   2.31524747539826     -0.83295449229156     -0.28651196066099
  C   1.90142114627511     -2.22013708757087     -0.43148863703078
  C   0.57538788029949     -2.28873208428723     -0.20500510179816
  C   0.05401017137440     -0.93166578361112     -0.00777669452357
  C   -1.29036986838286     -0.70910389341903      0.14241673816255
  C   -2.23320019594495     -1.75753200880804      0.48760705780205
  C   -3.48404689828871     -1.22696452496472      0.48345189196909
  C   -3.40576343301845      0.15014522176185      0.06964864584843
  C   -2.09532903054900      0.51264580939953     -0.11493200803352
  C   -1.71285795771369      1.74275023395177     -0.73661990494379
  C   -0.56695047215652      2.46392089072679     -0.70125367528373
  N   0.54159170306110      2.35874499137450      0.07631388566039
  C   1.27028219280757      1.34823203197983      0.37790159461277
  N   2.39248725816781      1.63455666093123      1.16601793803748
  C   1.19469359873869     -0.03960678642224     -0.05300979667923
  H   4.29194331224524     -1.07441174445906     -0.73545438833174
  H   3.84252238795300      0.51251563606786     -0.25118669004122
  H   2.56680490647486     -3.03727020057174     -0.66783898076900
  H   -0.03952008233327     -3.16868097780433     -0.27849730855139
  H   -1.96267160621351     -2.75245981037188      0.79826047001295
  H   -4.39427105766171     -1.74360431046446      0.74950143155891
  H   -4.25331236574724      0.79423581837041     -0.11166957063579
  H   -2.50877414845358      2.21102918291414     -1.30599606899336
  H   -0.57796751174490      3.39023397330791     -1.26913956816381
  H   2.60010250936965      0.94116066094008      1.86855087681021
  H   2.34846828994224      2.57001283088068      1.54185709334136
