32
Coordinates from ORCA-job ./opt_b97-3c_parallel
  N   5.56337635841994      0.17984526503067      1.32731559547541
  C   4.46537978112350      0.24036367727242      0.95114178398817
  C   3.14358235423213      0.33758534883677      0.48587054423161
  C   2.58949797986025      1.48222639126787     -0.17254977962305
  C   1.25079020074679      1.24864691975171     -0.39810283771664
  C   0.41349132011832      2.11852532833402     -1.18711846208134
  N   1.00210293503576      2.69158577226308     -2.26524458989618
  N   -0.79816734481272      2.49602419500082     -0.91828644998907
  C   -1.66431010479057      2.17173064653768      0.03567751349096
  N   -2.19532635494539      3.22398751493088      0.69539933013683
  C   -2.19904232487184      0.87763237242684      0.29131244579376
  C   -3.47361697528408      0.87284989284933      0.89693472723333
  N   -4.52091263177761      0.90629083206744      1.40519010083605
  C   -1.67049352932234     -0.39220398607824     -0.04038909700861
  C   -2.46058966508067     -1.52614562253588     -0.08519715838104
  C   -1.63196811096817     -2.66244294389295     -0.16757144917170
  N   -2.02584863153065     -3.92948041575321     -0.27411320828540
  C   -0.26492750928617     -2.24929918008061     -0.14352329495088
  C   0.77159054800839     -3.16976993457644     -0.29761065299996
  N   1.54776778351980     -4.02922400295706     -0.42798279666778
  C   -0.22581238783217     -0.84544655517619     -0.07741875098793
  C   0.94226525553213     -0.09753043391726      0.07008965423674
  C   2.15597324973470     -0.62807992014132      0.59150580213541
  H   3.13282317680808      2.37861542302462     -0.42298797503711
  H   1.80569038736020      2.25118679807150     -2.67214918517916
  H   0.44392248002043      3.28919211654341     -2.84991747154660
  H   -2.00238571121883      4.14207164851913      0.33791956161798
  H   -3.01055170609989      3.10872787732821      1.27307043215056
  H   -3.53589732703421     -1.54213911756983     -0.02373234901844
  H   -1.34947313939913     -4.67204980143116     -0.33442054447400
  H   -2.99802601355063     -4.17374239740649     -0.31310352583280
  H   2.27194662298466     -1.59014750363993      1.05700524512098
