29
Coordinates from ORCA-job ./opt_b97-3c_parallel
  N   -1.95302694260957      4.72972232200784      0.40627711177980
  C   -1.55516202831372      3.64053688705721      0.31148050397463
  C   -1.11455792290938      2.30267944744370      0.16398600556445
  C   0.25254271157886      2.11513646292012      0.29939890960389
  C   1.16955512095756      1.08233186161209      0.13704240089286
  C   2.53078846322556      1.38879491661915      0.21018854557402
  C   3.32386303329982      0.25121018270307     -0.00338783080116
  C   4.72033128273983      0.16288779906977     -0.02154224956221
  N   5.87487878082359      0.02401414107377     -0.04632997689557
  C   2.46628573444127     -0.85299372232848     -0.18340601283000
  N   2.83052237532309     -2.10951781496694     -0.38554861322157
  C   1.08315961896000     -0.37545072792999     -0.10626206214999
  C   0.02799622989667     -1.23764026437205     -0.13179133142741
  N   0.23218034745457     -2.60162802919938     -0.16036827289911
  C   -0.92757537905207     -3.17345097290801      0.13604362237516
  C   -1.98218904183409     -2.25831474947230      0.33291330621113
  C   -3.32916529697542     -2.55296022458324      0.56317415753363
  N   -4.45033315650621     -2.79493708725225      0.75220701215007
  C   -1.45211638727081     -0.97422812380964      0.07788793212797
  N   -2.21677210091847      0.06809502884842     -0.05175664444638
  C   -2.14139780705481      1.36742650826828     -0.23404716987419
  N   -3.24704197201303      1.89214253526181     -0.79607276538077
  H   0.75479467366874      3.04492608369545      0.54045905475894
  H   2.92410398180164      2.37489928245822      0.39923546234148
  H   2.08263225383192     -2.80386123497741     -0.39354616544431
  H   3.80337360377685     -2.36630299468652     -0.37336632271714
  H   -1.01395042596910     -4.24914314565726      0.19315285121169
  H   -3.35114392586829      2.88067862492659     -0.94445886215801
  H   -4.04293322098372      1.29135329907802     -0.92100587089359
