30
Coordinates from ORCA-job ./opt_b97-3c_parallel
  N   0.60685801105731      3.47048205319115     -1.35293754757947
  C   0.73283143188899      2.36263623658025     -0.52776140776908
  C   1.80629103973028      1.53091578143186     -0.65138929105200
  C   2.09176619475577      0.28756932759946     -0.01682433502337
  C   3.37045100536811     -0.20004447944491      0.16552409672294
  C   3.31188464984447     -1.55241315145588      0.61509779477806
  C   2.00399013391930     -1.96760001709842      0.64206177783453
  C   1.17650277534677     -0.85046858341120      0.25887423363979
  C   -0.17518957447994     -0.90357663266263      0.01492837364694
  C   -0.91388043387116     -2.13803597937031     -0.37397137904183
  N   -0.34428903999598     -3.32740458124603     -0.60481235093563
  N   -2.19923507475210     -1.92085807374653     -0.57679837146612
  C   -2.38188534365154     -0.58623858722654     -0.29990217607865
  N   -3.62137079579240     -0.07655769157849     -0.37847467120226
  C   -1.18821771120054      0.09718797307970      0.00441657428258
  C   -1.11880522944248      1.41448487607132      0.60999416557379
  N   -2.17473071421434      1.70772252049073      1.47821865822892
  N   -0.25764525020192      2.34582337400528      0.43058121194137
  H   1.44151916060418      3.74162137953282     -1.84715182657287
  H   0.13840703596073      4.24586189424342     -0.91227265205551
  H   2.59878233149510      1.89950022513142     -1.29647415909691
  H   4.27468404113528      0.35940927797570     -0.02143550746676
  H   4.16407403355079     -2.14014810079650      0.92485134605231
  H   1.64404091246990     -2.87805534593328      1.09522256009788
  H   -0.88468154947714     -4.01064851813254     -1.10718238988086
  H   0.65989299208668     -3.37001433325480     -0.66988441237882
  H   -4.38842630761171     -0.72249393941749     -0.43500981833742
  H   -3.78638224395831      0.84125936381433     -0.00017389562066
  H   -2.41424838232435      0.95447968100881      2.10526865328750
  H   -2.02578957683966      2.57931552331904      1.96489936817170
