31
Coordinates from ORCA-job ./opt_b97-3c_parallel
  N   -4.89599908373068     -0.39284145107952     -0.39943509688756
  C   -3.79076427550945     -0.03124876026496     -0.30012759256739
  C   -2.48735957549070      0.43403348982165     -0.17472860336057
  C   -1.29880392233663     -0.32469129365394     -0.09575202196245
  C   -1.34181640331901     -1.70306325736065     -0.17196753967080
  C   -0.44840604176661     -2.76634738060576      0.05423184797617
  N   -1.05742863878318     -3.99460317164509      0.04242847100757
  C   0.94578565292180     -2.82293170717107      0.24627501618028
  C   1.95783245239640     -1.89564626129743      0.12886616361211
  C   2.07060577684869     -0.52584064911802     -0.04280180248754
  C   3.34224819059700      0.09299618759975     -0.14270657843302
  N   4.55534239891627     -0.51610299474568     -0.23877681786722
  N   3.30403309694913      1.44340161709951     -0.08262356222730
  C   2.01620665447942      1.77103795255883      0.05663702631766
  N   1.62226323135712      3.03721260638088      0.16414268776066
  C   1.13368374070451      0.60450668150204      0.05575951878801
  C   -0.22825962154598      0.71547885178892      0.07694787123217
  N   -0.81691065482530      1.96734357384773      0.16779355333397
  C   -2.12228379904117      1.80235085396614      0.01372441042856
  N   -2.98619125905921      2.82976703061328      0.01147319129485
  H   -2.35080437226922     -2.05488404920295     -0.36136925722177
  H   -2.05414679644073     -4.04782019772544      0.14819379122912
  H   -0.54338093804555     -4.79594049801915      0.35872562833126
  H   1.30975514656333     -3.82836640026726      0.42536035498717
  H   2.92864979131053     -2.37330236787080      0.23131817449673
  H   4.59889208404569     -1.40123485618905     -0.71038037976720
  H   5.31056369372144      0.10902817389928     -0.46390494181660
  H   0.61876345789328      3.19800449662337      0.17895307009671
  H   2.30045300726314      3.76856414666435      0.04760450800221
  H   -3.97249332046354      2.64586262760902      0.05129883173815
  H   -2.66548050464082      3.72747195154204      0.32581019795606
