29
Coordinates from ORCA-job ./opt_b97-3c_parallel
  N   -4.30323558113661      2.66779795671273     -0.25908581366313
  C   -3.44184729929503      1.90854823491470     -0.07100487161641
  C   -2.35713221050778      1.01622056670839      0.12442004794228
  C   -2.72049208981771     -0.14333647975931      0.83003582550156
  C   -2.21823330789841     -1.41685228573992      0.96446926518776
  C   -1.17583081740809     -2.10491498876939      0.34518721988649
  N   -1.22631028438480     -3.44323333038901      0.33971959865744
  C   -0.12699885323843     -3.87459842258738     -0.33310479860142
  C   0.73860911305476     -2.85704506331154     -0.68335687848061
  C   0.12605707041919     -1.64952085023918     -0.26878286643312
  C   0.74185135462608     -0.41747589876359     -0.16756883090375
  C   2.18763942206316     -0.28293064797856     -0.10377156370631
  N   3.09914240673284     -1.28824435467361     -0.07466250443196
  C   2.49953671974254      1.07438329920006      0.00371205465322
  C   3.79127781688873      1.57243877307725      0.20040067209065
  N   4.88549437119039      1.93354802142566      0.36472493540233
  C   1.29306167620430      1.81641890146050     -0.04607216382415
  C   0.20454027276910      0.96423227573886     -0.11366915986784
  C   -1.10200441351871      1.49661887041041     -0.34508794067822
  N   -1.12232593166959      2.70162458019202     -0.95525984554716
  H   -3.69996090161948     -0.04226761559059      1.28257531397095
  H   -2.85982009764106     -2.08970535739810      1.51907839116970
  H   -0.01969267212811     -4.92492996698488     -0.56462321745675
  H   1.62408188365156     -2.95100309516285     -1.28754605392357
  H   2.76710590471185     -2.19683986293217      0.20785933192049
  H   4.00898029606066     -1.04618751906040      0.28514851627852
  H   1.25407647406039      2.89041429877202      0.02705523822525
  H   -0.31209346405877      3.02283749680596     -1.44945255339554
  H   -1.98140445495294      3.20949418792202     -1.08255123465668
