29
Coordinates from ORCA-job ./opt_b97-3c_parallel
  N   -1.54330681687047      3.91755355133929     -1.09923464265035
  C   -1.02943723151040      2.93647334395654     -0.74929078207854
  C   -0.42312261174942      1.72171647297685     -0.31444259758981
  C   0.94608427343149      1.81513692158458     -0.17615034011605
  C   1.98917760229407      0.98073236986162      0.26673282744469
  C   3.13752541066382      1.71564294277245      0.66198032816621
  N   4.09976404555013      2.27269650398752      1.00441468586496
  C   2.15441509743685     -0.42604674380216      0.29074542302203
  N   3.35216286320881     -0.87983011775247      0.72916852993106
  C   1.28213437117224     -1.44151157301557     -0.21424762807966
  C   1.79746096787913     -2.66294634408303     -0.64053290906899
  C   0.74384616362071     -3.58944977919740     -0.83621913655996
  C   -0.43461573460765     -2.98751913010631     -0.48136365726808
  C   -0.17612761147131     -1.62189240217984     -0.13344901127573
  C   -1.23552714209284     -0.78360054450328      0.17245875457090
  N   -2.45201471097277     -1.32211076554410      0.44845925341524
  C   -3.31463628841718     -0.30305648142091      0.48923983533831
  N   -4.60598627162934     -0.50032230297442      0.76560905998457
  C   -2.70045538778021      0.95903316528915      0.21178997748528
  C   -1.36545914830439      0.70655710348901      0.03770588398042
  H   1.30180890239108      2.82020682938318     -0.36682637411190
  H   3.45524508620411     -1.84867915752556      0.95997493700190
  H   4.06485049854587     -0.24496838492145      1.04567068966606
  H   2.83844769277613     -2.86271877780498     -0.84131594579659
  H   0.85852069039777     -4.59017876552586     -1.22280166048766
  H   -1.42463615909622     -3.40434714561751     -0.52761130130273
  H   -5.25356515127272      0.26154929764411      0.83151971898274
  H   -4.92820021470181     -1.43046656838679      0.96591438759376
  H   -3.19084094859603      1.91557180437812      0.14566440383655
