31
Coordinates from ORCA-job ./opt_b97-3c_parallel
  N   -4.58907849169069      0.06758929472318     -1.69513714815149
  C   -3.64532604598709      0.17164950858145     -1.02022544388237
  C   -2.51617110117614      0.37241041383355     -0.19477828846289
  C   -2.29314034526038      1.67629072283234      0.19760478530534
  N   -3.20779865454524      2.64279510030733     -0.11342103167262
  C   -1.20496079744101      2.19314423250107      1.00816199051345
  C   0.11805247590515      1.95464329094801      0.95252168993994
  C   0.91709567196996      0.96936903270970      0.29170023145586
  C   2.29239694812328      1.19678198603960      0.05715554700928
  N   2.91795162531308      2.37631134843075      0.12017668887208
  C   2.97972139943658     -0.03508667660391     -0.20046114768022
  C   4.33077116902652     -0.16753197866205     -0.50564753021168
  N   5.46644218686924     -0.25744058637385     -0.75452913393097
  C   2.03889374071658     -1.05400485840853     -0.08376890165918
  N   2.22337667179575     -2.35104876002246     -0.23233867051787
  C   0.70299342467567     -0.43497877324371      0.18818691042266
  C   -0.43263928482143     -1.19793039480519      0.33221406004100
  N   -0.31083880706682     -2.58428583784799      0.50455730127990
  C   -1.53573590532577     -3.06347021291938      0.52528871964849
  C   -2.51572024322498     -2.04723487526025      0.34088718022810
  C   -1.84763359291494     -0.84887625432085      0.22839652495858
  H   -2.89376579752789      3.59623997376893     -0.13477866367023
  H   -3.95123436530288      2.41761001782865     -0.75470451283306
  H   -1.50951371859043      3.01060385941771      1.65221551983428
  H   0.70393617523201      2.63600519353854      1.56821410660214
  H   3.89913114457522      2.43870873529145     -0.08857439892774
  H   2.39412558446109      3.23189765404695      0.12378330750793
  H   3.14692049669174     -2.72462115225501     -0.37361779061313
  H   1.41577938121033     -2.93862697113515      0.01385000564008
  H   -1.71902366750100     -4.11847454798307      0.67409350838757
  H   -3.58101599432754     -2.19093779326228      0.26406715076489
