32
Coordinates from ORCA-job ./opt_b97-3c_parallel
  N   4.20810724092467     -0.65499002030953      1.33836784260275
  C   3.17980251981359     -0.50739156766837      0.80798954736691
  C   1.95392724981517     -0.29130177633361      0.14886670477213
  C   1.61583628539093     -1.29021576434080     -0.88626500156249
  N   2.62880345845649     -1.49953833567621     -1.79777524637491
  C   0.48085255359124     -2.03029428988504     -0.94890999877098
  C   -0.66442583283309     -2.00122470024328     -0.10717666051657
  N   -1.37280460913378     -3.11514609067146      0.06847916182574
  C   -2.49795201700877     -2.77215115924790      0.77556022234583
  C   -2.61673880833159     -1.41781888706815      0.96282762052790
  C   -1.43087343683761     -0.83803691780129      0.40811076598179
  C   -1.22408726965809      0.48828096526277      0.08457580186176
  C   -2.34072904742551      1.43200417662769     -0.22092980729305
  N   -3.63825521994749      1.06517682456343     -0.22498458012423
  C   -1.81435564326354      2.65036221804817     -0.56917879526174
  C   -0.39997410025993      2.54753361099279     -0.46777581734738
  N   0.44816459351597      3.55671063815969     -0.73792540155856
  C   -0.02091246169137      1.22615333626779     -0.10288419532314
  C   1.28795354831019      0.88427217713920      0.38886594894682
  N   1.91861096446270      1.88823527192227      1.11619527931778
  H   3.55478864928407     -1.22520961270452     -1.51557415770699
  H   2.60838122150733     -2.37168739010547     -2.30059394854197
  H   0.46461117775191     -2.83782818868979     -1.67407325718980
  H   -3.15455586336359     -3.54684578776825      1.14475067816560
  H   -3.34781224255781     -0.91281686648453      1.57395889525455
  H   -3.83450258642711      0.07531745117871     -0.20006011628455
  H   -4.29153533081489      1.63250110194257     -0.73617731147935
  H   -2.35665172715355      3.51173922078153     -0.92560284980120
  H   1.41270910901230      3.44724248898108     -0.46853461280319
  H   0.09501870568924      4.49438746521737     -0.79977470428825
  H   1.31401141829523      2.36857296782660      1.76447898459193
  H   2.80000855118660      1.63067838198703      1.53585085196699
