24
Coordinates from ORCA-job ./opt_b97-3c_parallel
  N   4.89835350789635     -0.65289583228870     -0.10240063884108
  C   3.86032486863280     -0.12750591728816     -0.11697539900271
  C   2.60252039243574      0.48166162230929     -0.12314563820026
  C   2.31829542926326      1.85986230070146     -0.26074560744760
  N   1.02438213882536      2.14570360974977     -0.18503123401080
  C   0.36468143881223      0.96019238698749     -0.02229584713121
  C   -1.00816228031817      0.96183627499571      0.10534108969733
  C   -1.77295150156608      2.17409479204498      0.23640536062997
  N   -3.07060590185515      1.94917204270948      0.26476483340439
  C   -3.23287622497508      0.59270036611314      0.08742852204537
  C   -2.02995385346182     -0.07880425245081      0.00268104239988
  C   -1.90391990539748     -1.47218551533317     -0.28919906484437
  N   -2.84836099112759     -2.01427216319930     -1.08500521123871
  N   -1.07106899816541     -2.33671685065750      0.24962566392227
  C   0.16274307469316     -2.33237979571347      0.67527215949680
  C   1.25227883362288     -1.48528787150685      0.44850102217222
  C   1.36185327229706     -0.16553070938917      0.04864489605587
  H   3.04995961379914      2.63859268464930     -0.42287864045822
  H   -1.35084993551771      3.16065007525339      0.33038944989563
  H   -4.22249936676288      0.16136315898608      0.06887852343680
  H   -2.84504764556331     -3.00750513159430     -1.23817692282624
  H   -3.42798669667629     -1.43249919987728     -1.65936574240093
  H   0.41410261537910     -3.22676187038057      1.24013465259307
  H   2.20059068202979     -1.95428941932092      0.68712306195244
