26
Coordinates from ORCA-job ./opt_b97-3c_parallel
  N   5.28104056506111     -0.43358869440549      0.55780119572846
  C   4.13574065579427     -0.33287270649134      0.38803460889646
  C   2.75431000217516     -0.18832788946007      0.17366418256583
  C   2.10933252626579      1.03700164222480     -0.19849472664136
  C   0.74892433434556      0.82075677180022     -0.25457807660081
  C   -0.17800695946414      1.81056974870805     -0.75427764193984
  N   0.30329804932149      2.64021521721837     -1.71192143112121
  N   -1.37085535772425      2.08467687462369     -0.30618939109134
  C   -2.12231381340856      1.41376656853027      0.56673911472648
  N   -2.57576222455777      2.11220093984645      1.62751144549259
  N   -2.64874889714659      0.20279061880480      0.41363352930950
  C   -2.11404112624298     -0.91520980518500     -0.00491042413976
  C   -2.82945235953750     -2.09033931493914     -0.26365641047946
  C   -1.88498757684398     -3.10233974585102     -0.32824535808235
  N   -0.59482720892131     -2.69387444159990     -0.17528764400204
  C   -0.63810569352362     -1.36488140589981     -0.03378717701097
  C   0.51710796118059     -0.59471105683736      0.04697202227409
  C   1.79289554689799     -1.17676596294033      0.28048371388150
  H   2.61515755922625      1.97300199144982     -0.36999506081326
  H   1.07504163785213      2.33893743753009     -2.27657545084028
  H   -0.32279037652416      3.32599682520525     -2.09615534154122
  H   -3.36014299628810      1.74834083349917      2.13884482212650
  H   -2.38807712265850      3.09735093294806      1.67221710757443
  H   -3.90122762663104     -2.18024595045418     -0.29593626980190
  H   -2.08544384470904     -4.15364740092990     -0.48598570268254
  H   1.94972405466041     -2.21285378939443      0.52068928211260
