33
Coordinates from ORCA-job ./opt_b97-3c_parallel
  N   -1.71333440738074     -3.56099465999427     -2.00247147342698
  C   -1.28037831059628     -2.73319260483410     -1.30922258730495
  C   -0.62087633245296     -1.78174442583835     -0.49669692710740
  C   -1.46641852331260     -0.81379546903728      0.14207221914484
  N   -2.74516187625590     -1.09488654862315      0.35061911498386
  C   -3.29810955976121      0.09940427199550      0.74852158228087
  N   -4.60336684270185      0.15602701502368      1.07033422448953
  N   -2.48192139753576      1.14792911344573      0.76154143461730
  C   -1.26288735409972      0.62240672996347      0.37903395251498
  C   -0.19731895391756      1.41740319432072      0.03183360986618
  C   -0.35668927494554      2.84237208491653     -0.31801294025040
  N   -1.50532290289757      3.49281557590448     -0.23164072557589
  N   0.76806197235844      3.38170727631226     -0.78289234390763
  C   1.70484434363568      2.40296051822725     -0.67238091966574
  N   2.97208318400938      2.69251033167634     -1.00708155237420
  C   1.19477663310961      1.16453808903148     -0.17588888633524
  C   1.98509353446033      0.13509644560771      0.41598599383695
  N   3.22036559057099      0.53287558230338      0.88159309457802
  C   1.64389145579913     -1.20624266183483      0.55296078011442
  C   2.47561696944733     -2.00007451623433      1.36540424758867
  N   3.19226381021982     -2.64084584843489      2.02674217295867
  C   0.74019521028017     -1.97545450141126     -0.31905847020700
  N   1.33867904443665     -3.02271053324780     -0.92427427969618
  H   -5.07654689929284     -0.71695878207112      1.21817399290565
  H   -4.93604610497048      0.95800623937278      1.57328557980786
  H   -1.56763416696928      4.44606288743001     -0.54265932472226
  H   -2.29225146856910      2.98404768050819      0.16915426260923
  H   3.65138608909289      1.95727639492985     -1.08300693355953
  H   3.13789730108093      3.55691663755540     -1.49113581786490
  H   3.26697549477630      1.45047137308991      1.29263698725049
  H   3.75797960435303     -0.15868512146268      1.38031692386051
  H   0.78742522680704     -3.72811665928212     -1.38615652506919
  H   2.28572090192048     -3.25686260740839     -0.68938421504198
