27
Coordinates from ORCA-job ./opt_b97-3c_parallel
  N   -0.58888983834802     -4.88050571946255      0.79941813819540
  C   -0.51008120847113     -3.76624181091419      0.47966139007281
  C   -0.43650931085029     -2.40587023274780      0.08296042436071
  C   -1.59821871663284     -1.94487521328913     -0.66247700005917
  N   -2.15622590367455     -0.80393454423366     -0.75402931172825
  C   -1.91019767555800      0.41537545541415     -0.24224680082601
  C   -2.90855597012978      1.29769311486477      0.13590865605681
  C   -4.28282331483263      1.04812021538238      0.19312576910539
  N   -5.43051755396256      0.87134308933022      0.24722893158174
  C   -2.25724368229743      2.57527785831723      0.36116937210876
  N   -0.97322522944208      2.53904227149346      0.14547152795068
  C   -0.66533105740630      1.20717353007357     -0.14657616972612
  C   0.64230023086363      0.80927400243325     -0.14490263696130
  C   1.68988978452605      1.80836175408977     -0.12479975458182
  C   2.89603253237922      1.18076683793326     -0.10056835734474
  C   4.18094464604262      1.74279420496076     -0.13511296748916
  N   5.27797840688177      2.12493929206526     -0.15618115943346
  C   2.65919374362739     -0.26102154257071     -0.04584874460667
  N   3.66436354824744     -1.13760980877439      0.02434885435318
  C   1.27706976309288     -0.50278131730196     -0.06620386693037
  C   0.77584087877117     -1.78498448861287      0.23628995908918
  H   -2.08361134924839     -2.73422612586095     -1.23456237740906
  H   -2.76430067083524      3.48742942664555      0.64183806266241
  H   1.50426044208128      2.86629381387998     -0.16477576746964
  H   4.61719528084161     -0.81948213053676      0.05980122383904
  H   3.51693409542432     -2.12470151167555     -0.07658750819495
  H   1.52534898080988     -2.44788147790260      0.65855022458464
