32
Coordinates from ORCA-job ./opt_b97-3c_parallel
  N   -1.21843588187441     -3.94344522606552      2.13053392096265
  C   -1.16267874666711     -3.01706918040606      1.43320874045210
  C   -1.06779538559997     -1.89518018234594      0.55777484573544
  C   -2.16566300900919     -1.11897662260803      0.44885994625563
  C   -2.37726578813241      0.02157204863487     -0.43321075954989
  C   -3.57622993537214     -0.01195921133606     -1.18114284457608
  N   -4.55940385073368      0.00106941980857     -1.80380817070848
  C   -1.62609923654385      1.16337668402379     -0.49063405264095
  N   -2.08499762616148      2.27771769481287     -1.17944185838448
  C   -0.39140869179516      1.38527783226564      0.23718585653820
  C   -0.05361849146420      2.62730246168031      0.87846618768860
  N   -0.86469552029992      3.65629954057915      1.07519700061458
  N   1.23401322610818      2.68907316087378      1.30989788509967
  C   1.77688634741758      1.54422446706828      0.92431453272989
  N   2.99697867030760      1.19561530619458      1.28147532209707
  C   0.79284218367432      0.64975348964573      0.20939051622998
  C   1.05923939911064     -0.63151524935620     -0.26500280649221
  C   2.30723639072888     -1.10273502284735     -0.84764861135120
  C   3.36514135176327     -0.30970428011586     -1.30842968122430
  N   4.25777883997481      0.35794264409910     -1.64790161966286
  C   2.17774653055895     -2.46543014883627     -1.08325919725763
  C   0.91507517394376     -2.88351770751474     -0.60960975617437
  C   0.20386923305745     -1.78242528348676     -0.15682729608138
  H   -3.04167408248537     -1.43630344472215      1.00268289343505
  H   -1.36920032832554      2.78835311063608     -1.67334277425412
  H   -2.90212536977540      2.12255241684690     -1.75268137015077
  H   -0.49993119396695      4.49574907655966      1.49117219212373
  H   -1.79005333437240      3.64953461958826      0.67795630464914
  H   3.43973245421627      0.37794033584780      0.89884950259683
  H   3.57499604460359      1.87365658564777      1.74941042140479
  H   2.91265318320848     -3.08290986478585     -1.57288927032990
  H   0.56641990550530     -3.90329637818586     -0.57484746477448
