28
Coordinates from ORCA-job ./opt_b97-3c_parallel
  N   0.60475950393451      3.81140501868289      1.06895808844684
  C   1.16146400395484      2.85213653636123      0.70912020335923
  C   1.79757108753496      1.70757986981441      0.22622478619509
  C   3.17350026097555      1.53215300265739      0.14426342263124
  N   3.52182715602159      0.29160090250213     -0.29324656619366
  C   2.39648898735192     -0.40094766462057     -0.39912148946520
  N   2.41407215825196     -1.61084314442483     -1.06844761849384
  C   1.96057097313933     -2.69721532710491     -0.60050787656467
  C   1.25834156892109     -2.94410418184800      0.65976785702236
  C   0.08992620551687     -2.37248764737037      0.97565339296125
  C   -0.59169275785223     -1.29136816319749      0.29585372685729
  C   -2.00451117250649     -1.21939723363454      0.25132403659103
  N   -2.84806897166120     -2.19155068180027      0.59175321756568
  C   -2.43340413267115      0.08366864815091     -0.16773329697801
  C   -3.74784967536443      0.46792297369947     -0.41789296572860
  N   -4.85452892300185      0.77415880904751     -0.61757618758809
  C   -1.28566007204552      0.84164413021825     -0.36084603025128
  N   -1.24271393119884      2.05684536222937     -0.88560006142647
  C   -0.09218259473922     -0.01534538685694     -0.05508234208157
  C   1.22734624465060      0.41222400114285     -0.07291720179664
  H   3.92556327121768      2.25943428150424      0.40730552891176
  H   2.08930966800460     -3.57724843123849     -1.23436514804810
  H   1.61476918547803     -3.77571607241459      1.25670175777723
  H   -0.42732183604105     -2.76801079398640      1.84861805485683
  H   -3.84210133988566     -2.04591371234035      0.55102006233023
  H   -2.52031372646277     -3.12628491663529      0.75397843915214
  H   -2.10409807639922      2.55908459675680     -1.02726684746322
  H   -0.41053482832355      2.61998780300550     -0.82926513647872
