29
Coordinates from ORCA-job ./opt_b97-3c_parallel
  N   4.90001645343267     -1.37046032223000      0.12766003243377
  C   3.87369027455243     -0.81861545284461      0.10261988168705
  C   2.71001012234833     -0.05432531377684      0.09703674858335
  C   2.69721769548213      1.36852586596669      0.23648157311793
  N   3.79130023382973      2.09300314715568      0.48026305864671
  C   1.38382370633252      1.84267956393222      0.10797678158465
  C   0.51872374993533      0.76728205581450     -0.07991852546399
  C   -0.87086716573656      0.88221387317118     -0.16574531568710
  C   -1.48880795174326      2.14249624753543     -0.34530126436546
  N   -2.81756584886986      2.09463324835407     -0.27904959330745
  C   -3.13513618006458      0.80710492416505      0.00037391120341
  N   -4.47441989226105      0.47822935816502      0.15707160803222
  C   -1.99904299391536     -0.02982683087321      0.08366194318684
  C   -2.07055884257183     -1.40325768147548      0.41082078674144
  N   -3.22719565784902     -1.83516241821202      0.99748690243567
  C   -1.19402349671938     -2.44674311785202      0.04405765766963
  C   0.08489901029485     -2.50876013081800     -0.46800711776329
  N   1.15129558913892     -1.73033770645303     -0.44735971198089
  C   1.39224221285727     -0.48295476504837     -0.13459084707694
  H   3.76056064087924      3.09528576885766      0.49668505781920
  H   4.69088572001542      1.64824291197478      0.54304324223224
  H   1.09476979018485      2.86931103793809      0.25516587551752
  H   -0.98658865763874      3.06999334842535     -0.57069508981300
  H   -4.75821004349006     -0.36628121660972     -0.31811832476451
  H   -5.05419215353566      1.25862915346070     -0.11538966058063
  H   -3.82408240311771     -1.16102475774552      1.44868658654289
  H   -3.23990935901438     -2.76214938238098      1.38173940651534
  H   -1.65990097508361     -3.42577378855127      0.09445743618059
  H   0.31786905883045     -3.48577036705356     -0.88941140963089
