28
Coordinates from ORCA-job ./opt_b97-3c_parallel
  N   4.35373917120522     -2.56962861114682      0.67824284198626
  C   3.29629393966984     -2.12406649947115      0.48884663005058
  C   2.01958439030662     -1.55751949136783      0.24394765951362
  C   0.93122305611607     -2.29632698182376      0.68309363315060
  N   -0.32761822865622     -2.27401759976926      0.30409495494103
  C   -1.25636643026540     -1.46289949316206     -0.06214327009930
  N   -2.43689275905790     -1.93914048132645     -0.53149815172358
  C   -3.25529560359113     -0.88091681098586     -0.54591929310175
  N   -4.51370076540914     -1.01226673161668     -0.97074999377382
  C   -2.65372497841592      0.34971293184359     -0.12190004283065
  C   -1.32389866352438      0.06555932220938      0.09260035000037
  C   -0.24326063245088      0.94956826433384      0.21350077101142
  C   -0.39493999242622      2.34630120792299      0.33301968746707
  N   -1.49961748778022      3.02679396375470      0.72062504797122
  N   0.70509586195069      3.05902858446845     -0.04130865661383
  C   1.60247602448879      2.16543313887561     -0.43681663112412
  N   2.79176565898836      2.56937639668416     -0.92297772144522
  C   1.14992965283545      0.78765133079779     -0.24109303252299
  C   2.04186025847593     -0.23749633856205     -0.29746974841020
  H   1.16356265673749     -3.11920804740443      1.35550355696525
  H   -5.17755922512509     -0.26599997774294     -0.88890211640109
  H   -4.83611973425131     -1.92095349396676     -1.25376815138917
  H   -3.10383446607714      1.32155983022217     -0.23905106166410
  H   -2.14548664048952      2.54902360692313      1.32571019341634
  H   -1.34312451898740      3.99666647070839      0.93865214380321
  H   3.04262318353935      3.52836558631935     -0.75733893312328
  H   3.55086965440924      1.92126400081949     -1.01485931337744
  H   3.02718513758493      0.02940884886310     -0.66109179927651
