25
Coordinates from ORCA-job ./opt_b97-3c_parallel
  N   4.23788787348181     -0.23813468484385     -0.16864595298300
  C   3.08756026821992     -0.06058203352182     -0.16514679137031
  C   1.69557795399494      0.19042122822784     -0.14409248249150
  C   0.87127363611168     -0.94645354802039     -0.25441523462016
  C   1.37865589160285     -2.22761118166112     -0.42463125217565
  C   0.33127800719932     -3.11617811592613     -0.13906460437019
  N   -0.81860990588090     -2.51862853062321      0.17762732013464
  C   -0.59308360393268     -1.17653653400243      0.08737412146152
  C   -1.66131574395448     -0.31308160322006      0.22701340441793
  C   -2.97049341375850     -0.78450244412445      0.55243299753226
  C   -3.87954999268372      0.22269120450452      0.32802697044373
  C   -3.19341530848290      1.35461766208129     -0.17453251525646
  C   -1.82823790585393      1.08900760068483     -0.20446824575868
  C   -0.91895975092536      2.06853894746371     -0.62257972021764
  N   0.34337316551463      2.25532615972654     -0.39906143980350
  C   1.36226003431113      1.56245742865879      0.08618073757928
  N   2.25797141165144      2.31904165174164      0.76476432730422
  H   2.39871503801545     -2.48603925270685     -0.65137855225582
  H   0.38812947544216     -4.19629649276738     -0.16632912532820
  H   -3.17464266875848     -1.79311521690037      0.86503703123057
  H   -4.94600902489552      0.15711179500041      0.47890016769280
  H   -3.64372891392871      2.29126931559511     -0.46618259604242
  H   -1.38063599873239      2.89469752254954     -1.16162094090099
  H   3.14894178841221      1.93763336312696      1.03058973293030
  H   2.18881074866576      3.31612099889802      0.66287784736055
