26
Coordinates from ORCA-job ./opt_b97-3c_parallel
  N   3.45050217708376     -2.28863911980930      0.23640250093673
  C   2.42644081402001     -1.73800060526712      0.23864223470838
  C   1.11625410429226     -1.19783606883217      0.19918969580953
  C   0.07604471253797     -2.19363685945487      0.02413919298417
  N   0.42054195894842     -3.29514114614623     -0.67242800926103
  N   -1.11883273681090     -2.23873571818260      0.56660440040578
  C   -2.08018349952884     -1.39698991555701      0.83345217834180
  C   -2.33763150194100     -0.11886276568073      0.35990380005895
  C   -3.65286110399492      0.39247325117776      0.28733689612054
  N   -3.70341276266574      1.57433334106593     -0.34058329925348
  C   -2.42107082514244      1.89861519804604     -0.62651753386805
  C   -1.50099634992485      0.91548741192016     -0.23265481912247
  C   -0.11181839622165      1.13676698743091     -0.11447946667807
  C   0.50511985360792      2.36166841534581     -0.23263951830680
  C   1.87897632800954      2.16195074132157      0.06708617697154
  N   2.82881984414277      3.09612676619547      0.11965621954237
  N   2.18228295953794      0.87896968382615      0.34024436905384
  C   1.03245488526188      0.18978929650635      0.21441967117274
  H   -0.18500440022695     -4.09458572798313     -0.61328486452457
  H   1.36792128775575     -3.43736104469118     -0.97630127459464
  H   -2.87099559500095     -1.83351796135408      1.44053817293315
  H   -4.55155684969836     -0.10897160803063      0.61758685765619
  H   -2.19278876374280      2.84535628637270     -1.09280667473120
  H   0.02557959314728      3.30925485371227     -0.40789617204545
  H   3.76605071227761      2.82437904796304      0.35939685735420
  H   2.64315007137600      4.05438504851265     -0.10681376616397
