28
Coordinates from ORCA-job ./opt_b97-3c_parallel
  N   -3.23210103116501      1.35318031455920     -0.62188526408984
  C   -1.91488076680213      1.19692414843902     -0.22628341818883
  C   -1.28439709856544      2.41943104161684      0.08515637170529
  C   -0.05248444010430      2.79422401656711      0.56772076473172
  C   1.19917010636404      2.19440457670896      0.68671458778436
  C   1.74441558178277      1.00093169596920      0.25595119638297
  C   3.13873825108373      0.84730198136389      0.17250894992611
  C   3.42495037900098     -0.38496864818501     -0.40623919102426
  C   2.24257582051092     -1.09840858214952     -0.61631335146945
  C   1.14428403929849     -0.31404976838901     -0.20550626361288
  C   -0.15037408100995     -0.80308707840091     -0.05056711774001
  C   -0.42607420641164     -2.21037629249469      0.06449324548328
  N   0.49899021383269     -3.24141112687515      0.12747187353266
  C   -1.79927742901093     -2.39665740932483      0.15517067302323
  C   -2.44095628871009     -1.15929131524334      0.05200975802470
  C   -1.49735626221574     -0.13362939865694     -0.03531445819623
  H   -3.51864420837684      2.28091817643951     -0.87774162583957
  H   -3.60687138696726      0.63594015042662     -1.21663702930560
  H   -1.95953275391796      3.26451238219276     -0.01039144154626
  H   -0.02789604224946      3.84278238798993      0.84601693880932
  H   1.94982100484521      2.87234122193426      1.08038117577595
  H   3.85045333370248      1.61608913565455      0.42839087778492
  H   4.41180091458006     -0.73263087778913     -0.67724049601764
  H   2.17283476392003     -2.04256213586464     -1.12649330174609
  H   0.15617855205259     -4.03542152541710      0.64697742667768
  H   1.40547947196784     -2.94980320263640      0.46803748204526
  H   -2.28780640589400     -3.34642417287133      0.31811613934438
  H   -3.50609341484103     -1.01912890186385      0.13442061224473
