32
Coordinates from ORCA-job ./opt_b97-3c_parallel
  N   -3.82809774966177     -1.31899439400168      2.50489715172452
  C   -3.15681600672917     -0.87113751809306      1.67178756295077
  C   -2.30861167516090     -0.29920594803902      0.67880030501731
  C   -2.14368610979187      1.03936230348191      0.70929210936318
  C   -1.39881701468185      1.88379038468291     -0.21699892237170
  C   -2.11079672240819      3.00168225178135     -0.70900574306259
  N   -2.65800890795156      3.94060457841681     -1.12542621916909
  C   -0.06546042914953      1.80385260246371     -0.51691637313769
  N   0.56440683437487      2.84300794548698     -1.18405049984037
  C   0.83225048270951      0.74630219682825     -0.08346617965519
  C   2.16352755199008      0.98771055061143      0.34573617561977
  N   2.70370907176390      2.16298089650616      0.64832350829695
  C   2.89004059981416     -0.25358215929628      0.43017585580361
  C   4.19197441981379     -0.40546161042850      0.90118642729450
  N   5.28462446730483     -0.52008856407299      1.28909068453187
  C   2.02384184514502     -1.25510592952277      0.02179741754802
  N   2.24837358980807     -2.56196222841780      0.02441157827508
  C   0.70722228381636     -0.63839291228311     -0.32088601513178
  C   -0.37794601607936     -1.38919883579078     -0.73723405526299
  C   -0.36243777187512     -2.63802741829897     -1.44349141227812
  C   -1.65315487898775     -3.09638810172251     -1.42230967473946
  N   -2.47356298800059     -2.29387378053945     -0.65418174227316
  C   -1.76537154623608     -1.23938066581976     -0.30016744694377
  H   -2.72144054459792      1.57951232925800      1.45050685459798
  H   1.27744922623177      2.55652730382188     -1.83633503850188
  H   -0.04787394195815      3.54798248306679     -1.56890982875301
  H   3.67513184140765      2.23352964652765      0.89887781839215
  H   2.17730732156325      3.00841157095699      0.49799655754084
  H   1.48667335538563     -3.19604147368391     -0.16015893902920
  H   3.10284694884647     -2.93441868062804      0.40235338878067
  H   0.44976822091599     -3.02721145009571     -2.03756154774566
  H   -2.06479847992104     -3.95227892725760     -1.93405199554167
