28
Coordinates from ORCA-job ./opt_b97-3c_parallel
  N   -3.52170871988150     -2.06325441937826     -0.38315497349083
  C   -2.48241615364853     -1.58145608338632     -0.18387987979765
  C   -1.13455819015389     -1.18337183899462      0.05165108857108
  C   -0.27060014076196     -2.27770142269023      0.36398629496079
  N   -0.87081202773880     -3.49840177839047      0.43266449774208
  C   1.10282102829235     -2.31481648536566      0.67584682985567
  C   2.17553157138481     -1.46557547159453      0.55843281273145
  C   2.41801580764553     -0.16076624151138      0.14376192818715
  C   3.74652581600976      0.27470550084985     -0.02704402369846
  C   3.74281478425431      1.59382695930157     -0.48153341568858
  C   2.42256247153012      2.02950759026575     -0.56280871299849
  C   1.55458385863053      0.98676789957047     -0.17698296553176
  C   0.17548427284501      1.18302360336408     -0.02229324656241
  C   -0.42961783030631      2.43348500675692     -0.05326773151674
  C   -1.81536460628759      2.21888487859704     -0.01898635579929
  N   -2.79283588266749      3.13243651074157     -0.02176559561841
  N   -2.14243739199895      0.90451097045490      0.02965116432573
  C   -0.99118435126875      0.21717630052071      0.05995753251237
  H   -1.83778890309301     -3.61641533068243      0.18567258671032
  H   -0.30568520805238     -4.32353127950237      0.48697951560852
  H   1.40169278038479     -3.29872133346519      1.02045925683094
  H   3.10107263921781     -1.96828582585246      0.82357281785864
  H   4.61566474824505     -0.34400575366348      0.13663592544023
  H   4.61432437467120      2.17736612774513     -0.73658264327864
  H   2.10869016195533      3.00684819188854     -0.89021033941718
  H   0.06917939263080      3.38640600481153     -0.07167693441976
  H   -2.59666772070044      4.11298886349664      0.03842550904514
  H   -3.74241843223974      2.82071711551382      0.07830311523923
