30
Coordinates from ORCA-job ./opt_b97-3c_parallel
  N   4.88460824325116      0.02220953017545      0.98084608701507
  C   3.83204457829635      0.47211332036501      0.77693768882510
  C   2.57612483114454      1.04026131847099      0.52884146432522
  C   2.23642581834220      2.37443092183841      0.72342947964323
  N   0.94308525998359      2.63900373415896      0.43777930986408
  C   0.34779566437992      1.47753110199355      0.14632972128208
  C   -0.96791134293315      1.52532365987032     -0.36387297705803
  C   -1.34856757729405      2.79465330916899     -0.87082898874512
  N   -1.78053898972261      3.77048749692343     -1.33118985678988
  C   -2.02845066120991      0.59569572528366     -0.25562713038737
  N   -3.24586455721982      1.00871279071536     -0.65501761335717
  C   -2.00798972486137     -0.69509073773564      0.39043152015698
  C   -3.19144004819360     -0.99877239832727      1.09827756962650
  N   -4.15556337007790     -1.29421997376661      1.68110457315472
  C   -1.11458262429148     -1.76594835958301      0.23277074840343
  N   -1.48969304357589     -2.96811330429977      0.72662527612832
  C   0.12436054993436     -1.79227929990936     -0.49432179030406
  C   0.57522675758000     -2.92883576977004     -1.13577129431078
  C   1.95302056943423     -2.76634581811397     -1.48852526653523
  C   2.39057167180953     -1.57248804012276     -0.99729831768622
  C   1.27607820201590     -0.88493082569446     -0.39224441763813
  C   1.36818851060510      0.37472549175742      0.15021120821223
  H   2.88672099903200      3.15194839343341      1.09471550907339
  H   -3.41069922375407      1.97224115347540     -0.89763028830150
  H   -4.04905710256432      0.41808286486603     -0.53556249544835
  H   -2.35623264129661     -3.07772756773066      1.22620193875921
  H   -0.78972968607762     -3.67339714346084      0.86014402324445
  H   -0.02249135356620     -3.80115396505409     -1.35115464252265
  H   2.53347137704848     -3.47053328110152     -2.06308060967574
  H   3.37286455027966     -1.15188208452680     -1.11633534635415
