25
Coordinates from ORCA-job ./opt_b97-3c_parallel
  N   -4.24793537160468     -0.70310923672748      0.32679369228937
  C   -2.98205730880301     -0.31193922693504      0.15757314699847
  N   -2.67043133295659      0.99656330458456     -0.01650461996046
  C   -1.33360475248552      0.99663619151173     -0.13359864278574
  C   -0.68154763299195      2.16327258752782     -0.51612175877223
  C   0.65818310933874      2.50900617688291     -0.63077028310082
  N   1.76897213637825      2.01346591507549     -0.14349422943324
  C   2.17913336973259      0.85208201581409      0.31668656643774
  N   3.29035493216065      0.92992835295330      1.09986865569211
  C   1.74725153803672     -0.46214616244640     -0.03375954231698
  C   2.63141369440641     -1.53141447851463     -0.13919014543274
  C   1.89681962861542     -2.71750634328179     -0.36538995063895
  C   0.55128385000763     -2.41428616626997     -0.34679829815870
  C   0.39281511558423     -1.01394485822506     -0.17047963657913
  C   -0.86634110090236     -0.43594267779805     -0.02055258484313
  N   -1.96441361648205     -1.19610516653659      0.14544090940650
  H   -4.96815030083082     -0.01271992729238      0.42632898197124
  H   -4.44351492873427     -1.66317473354498      0.53982073147785
  H   -1.36621263383663      2.95336101896436     -0.79838998788695
  H   0.81958546073376      3.45815971358349     -1.13830829911337
  H   3.50703321347030      0.17186644985831      1.71873227950155
  H   3.62461805865363      1.84818499477683      1.33478402526262
  H   3.70668189153444     -1.45141007863763     -0.10049415993985
  H   2.32515621688530     -3.69567467286549     -0.52336851093832
  H   -0.27413340191037     -3.09437630525728     -0.46528800003699
