31
Coordinates from ORCA-job ./opt_b97-3c_parallel
  N   4.63731210280872     -1.71684196497174      0.66519650242022
  C   3.63399736902044     -1.15861917241223      0.46102819388112
  C   2.45947516752748     -0.44958908976977      0.22405696659932
  C   1.17384146865810     -0.99162359464720     -0.08415262896323
  C   1.02398296315147     -2.32482520430129     -0.36518197851277
  C   -0.07925062713971     -3.10193829526453     -0.79951052651850
  N   -1.34296258248169     -3.05720641278298     -0.54093135019506
  C   -2.07805747890075     -2.17387468803373      0.15692636098718
  C   -2.08410720530446     -0.81640649176520      0.12050645127398
  C   -3.28715981609187     -0.06375218915386      0.39505083004245
  N   -4.39531459201857     -0.54848572282254      1.01846922244304
  C   -3.19767878298138      1.16565546664582     -0.24180561547525
  C   -1.92157253056084      1.29238505241732     -0.82190231313959
  N   -1.56135090692918      2.30302278171643     -1.64239806111093
  C   -1.12794600167287      0.14833906222777     -0.49304022461143
  C   0.24224659117011      0.17340466157681     -0.27173027990804
  C   1.04557626910893      1.34182763208577     -0.10565058667742
  C   0.65952139549139      2.66294743521820      0.09511234965259
  N   0.42031790621224      3.79283293174452      0.26956286951536
  C   2.38277129206405      0.94992853070672      0.20347797101387
  N   3.38393710174469      1.79635267791847      0.45803672299250
  H   1.95743574469479     -2.87732215872456     -0.39387523784879
  H   0.20451325145737     -3.94357238429803     -1.43111073735857
  H   -2.91204993239737     -2.65550214058986      0.66147312297079
  H   -5.11116621945160      0.11673553445204      1.25098129061710
  H   -4.26706011153789     -1.25834924324664      1.71710717727121
  H   -3.98855264985427      1.89711270357507     -0.31469164282325
  H   -0.59609390078796      2.36402649687758     -1.91212871004923
  H   -1.98922581428256      3.20273738611781     -1.50293788140316
  H   3.20939252793284      2.78348229823064      0.52734782094270
  H   4.26629734575150      1.44916286497099      0.78988141626698
