31
Coordinates from ORCA-job ./opt_b97-3c_parallel
  N   -0.07573176950311      5.48578345606303     -0.17218708561611
  C   -0.13476764690518      4.32589988033279     -0.17005876827624
  C   -0.20080824164916      2.90135459458474     -0.16243386803139
  C   -1.44828484897204      2.38875440803256     -0.52338408565825
  C   -2.03586445200984      1.13685026054763     -0.53277985019543
  C   -1.67807456010404     -0.15377743983821     -0.16695958491479
  C   -2.67909837238802     -1.13865347382177     -0.05621653234120
  C   -4.05177449883230     -0.99405671066174     -0.24615506159506
  N   -5.20698728195196     -0.94000255271406     -0.39134579584015
  C   -2.07439565044927     -2.36019319278779      0.36306594186833
  N   -2.75475365625562     -3.47371605230982      0.63929402639698
  C   -0.68705721701312     -2.17368121041901      0.44558097799073
  C   -0.37011618335379     -0.85077140274135      0.12444864250438
  C   0.94555069205125     -0.37542103309690      0.02748528662762
  C   2.06482997552888     -1.24075306687053     -0.04305255082733
  N   2.08980724313065     -2.59440987833439     -0.22775178928249
  C   3.25337625558293     -0.47519795255992      0.13519322766003
  C   4.54128163298166     -1.02555029136662      0.08034747868117
  N   5.57980531738196     -1.54466569017236      0.01497098630436
  C   2.90695092906089      0.85730579933560      0.30922466533177
  C   1.50991455405191      1.00025317857723      0.18498311134165
  C   1.01974492182069      2.28729815172023      0.16534359380826
  H   -2.14337929108661      3.16672120916602     -0.81403547313230
  H   -3.08148641193212      1.19334334904496     -0.81440414595095
  H   -2.29377247203834     -4.29752967840481      0.97825997325965
  H   -3.75911047783982     -3.48552271865133      0.59140670244494
  H   -0.00130739737998     -2.90746105725370      0.82957339500513
  H   2.98136306316907     -2.96485670305691     -0.51940525398164
  H   1.31570452193567     -2.98081710140677     -0.74488638946831
  H   3.60062276711241      1.67101577022007      0.43702680241390
  H   1.79381919745608      3.01534353244296      0.37660402187280
