29
Coordinates from ORCA-job ./opt_b97-3c_parallel
  N   -3.20351410610087     -1.54079861048360     -2.12801394345831
  C   -2.41320812763621     -1.40758891149362     -1.28815289769886
  C   -1.40947299797032     -1.23688870172600     -0.28989183607768
  C   -0.75164346754731     -2.35041619581821      0.09697240803898
  C   0.33328917192631     -2.49803374467154      1.03874215635115
  C   1.49453877237172     -1.82669041749394      1.08551951271181
  C   1.93095237021637     -0.69671005625789      0.30312180350949
  C   3.29936650651417     -0.44245646474565     -0.01127248309030
  N   4.31911880643087     -1.27214478401816      0.18477418021325
  N   3.54239767989881      0.79867265932960     -0.54054038448647
  C   2.35682517954063      1.37773776952988     -0.54779477398855
  N   2.13674653790027      2.55933918537347     -1.10483021981278
  C   1.27328985907045      0.50199507106377      0.01507844006268
  C   -0.03611606988935      0.92306805230977      0.22037814779295
  C   -0.42000997039400      2.28532883921065      0.53509599810689
  C   -1.76755684343969      2.32092626653622      0.73407889853103
  C   -2.29036155929418      0.99971582349360      0.48606533275182
  C   -3.65200560298438      0.67310189890842      0.56691692549580
  N   -4.78530273528158      0.43630489945028      0.67354783465613
  C   -1.23310888089972      0.13511615172774      0.19917073379302
  H   -1.10956049789988     -3.28416741634102     -0.32497190114707
  H   0.23989665455086     -3.35395329594627      1.69987676532794
  H   2.21921733690795     -2.18644835676794      1.81326154245666
  H   4.16734038534888     -2.23182728355366      0.43475777178442
  H   5.24528921006832     -0.97956908562439     -0.07196532400099
  H   2.89380557334584      3.04447153802144     -1.55487835791547
  H   1.19986664372056      2.91252768271089     -1.19492070672026
  H   0.26581237439420      3.08715519195347      0.75908669917439
  H   -2.36086281086869      3.16119759672277      1.05386237433837
