26
Coordinates from ORCA-job ./opt_b97-3c_parallel
  N   -4.51185491383784      0.49632932428971     -0.92019552696421
  C   -3.40207906300716      0.57734064806284     -0.58413308827376
  C   -2.04949408245417      0.66149292795331     -0.16041699778353
  C   -1.50296241025413      1.92665781999938     -0.25941441196228
  N   -0.40331707987805      2.46957188099236      0.24671237381360
  C   0.83195500417333      2.10583257764837      0.36872131588660
  N   1.64732126715691      2.99196355098597      1.01563911087008
  C   1.49956015123208      0.93671304277746     -0.16130045687272
  C   2.84327124075037      0.89436006213723     -0.51648267560297
  N   3.34953133075709     -0.35572694004994     -0.70685775318011
  C   2.35521703231136     -1.17994117001101     -0.40202353000588
  N   2.44252050369409     -2.49822148322743     -0.45616826125255
  C   1.09142677408682     -0.43581650636917     -0.06268488039946
  C   -0.08093213233606     -1.05988536189617      0.26173147010004
  N   -0.06518991767748     -2.43124464325216      0.53758139493523
  C   -1.31533279809991     -2.77425193389397      0.76393488872853
  C   -2.22404443349891     -1.68751006315281      0.61706640676641
  C   -1.47930353698607     -0.57462269446438      0.30574931775656
  H   -2.15645962947100      2.65966866753862     -0.72462129592383
  H   2.46970569615836      2.64339088351476      1.47330655138359
  H   1.19018715905654      3.77875621859649      1.44526924307985
  H   3.48703079331162      1.75350478767999     -0.64299642018228
  H   1.64831272887856     -3.02368391236807     -0.09084179752250
  H   3.32172428999428     -2.92203426614459     -0.69904137815368
  H   -1.56976524240218     -3.78956899013520      1.03604875651149
  H   -3.29745642335731     -1.73580358400926      0.69162893644769
