30
Coordinates from ORCA-job ./opt_b97-3c_parallel
  N   4.87592797771044      1.39155028012602      0.27193240133623
  C   3.84827723686512      0.85424083851809      0.16403968436996
  C   2.67011466095994      0.12980943270743     -0.01919559486888
  C   2.63572577574290     -1.23904681380158     -0.51519783578176
  N   3.74846517706952     -1.87512879448074     -0.93927802787352
  C   1.33840493770564     -1.70934059437020     -0.45080154336315
  C   0.49614699122485     -0.63904096285904     -0.01990730660630
  C   -0.87884641065372     -0.67662803701454      0.12307303786217
  C   -1.65161744851638     -1.90514335322469      0.37938032326039
  N   -1.11877616978195     -3.11748026250637      0.61693030298777
  N   -2.95483045193889     -1.68899489070431      0.44219856047325
  C   -3.10959621324532     -0.35244456181110      0.17751760232390
  N   -4.35896197553780      0.13441566383167      0.05433346021971
  C   -1.88849468562039      0.33679301488899      0.03212890343728
  C   -1.72106275556066      1.66880593628095     -0.50903122790460
  N   -2.69225201960300      2.09001507743424     -1.40089099637848
  N   -0.78328463629112      2.50398581041266     -0.22263763404321
  C   0.05895441752181      2.37969889603430      0.84087771257598
  N   1.07206269300042      1.61680510212639      1.01651355428166
  C   1.37477167670039      0.51660315465085      0.27553670420256
  H   4.57830905770375     -1.33736691330858     -1.11919655972137
  H   3.66878975493948     -2.74928661836473     -1.42490103287428
  H   0.99715097393487     -2.62547176034878     -0.90484184167202
  H   -1.71991418495578     -3.79378062165338      1.05674404374487
  H   -0.13741642297144     -3.16503391252552      0.83666789790264
  H   -5.11389914167196     -0.45052588916266      0.36482707396711
  H   -4.50071709668422      1.12851175107263      0.03676473613094
  H   -3.04012898221537      1.38929966705334     -2.03558433418053
  H   -2.46776732744182      2.96674346646027     -1.84508567848324
  H   -0.09118913558816      3.14010306814034      1.60752787127589
