31
Coordinates from ORCA-job ./opt_b97-3c_parallel
  N   4.89022804844463     -2.04401762112160      0.24752768770666
  C   3.81021984612707     -1.62318986820231      0.14596106816030
  C   2.51734983199645     -1.06060184987184      0.00006474696055
  C   1.47782167019432     -1.98927425779696      0.25993693411201
  C   0.12485447369841     -2.05521144081981      0.09954589086314
  C   -0.48864018760588     -3.33973688644688      0.16990052048695
  C   -1.78114597413130     -3.26706241311770     -0.27695054922248
  C   -2.08874919945004     -1.91353498337423     -0.57871390461512
  N   -3.22633938449110     -1.54809290007728     -1.21437391381250
  C   -0.96022359990685     -1.10283219139930     -0.26543207994327
  C   -0.99314251327165      0.27694099450306     -0.06820431143575
  C   -2.15088850722310      1.04077983711722      0.23407329853115
  C   -3.37198956030818      0.57010893685010      0.72239086242241
  N   -4.39806627855001      0.18713893848665      1.11931915751429
  C   -1.83912600967052      2.42439896211104      0.17660296582845
  C   -0.51567156964657      2.58584927728302     -0.14288605961607
  C   0.17960009180946      3.79380863526326     -0.25774071452156
  N   0.80710560174010      4.76666898009758     -0.37905868247018
  C   0.10892140888551      1.26940576792375     -0.24072729477680
  C   1.44209480751479      1.22010272588647     -0.49813234183857
  C   2.51225238847087      0.27155232040421     -0.44634495687291
  N   3.69778750903699      0.81083031064598     -0.82552334259667
  H   1.88897188689767     -2.94056105129375      0.57670397392723
  H   0.03695637169801     -4.23982877072923      0.44742006550030
  H   -2.45528422325302     -4.09671558196924     -0.42505984479731
  H   -4.03628035564994     -2.12959979230093     -1.08406095845240
  H   -3.45230622693823     -0.57268835282122     -1.27643493506313
  H   -2.53423131160251      3.21736553092432      0.39966291785564
  H   1.82953282948830      2.20993718124921     -0.71604194223584
  H   3.78032537064941      1.79920889544513     -0.97564545306059
  H   4.55405835624511      0.29067202744841     -0.73583861563688
