27
Coordinates from ORCA-job ./opt_b97-3c_parallel
  N   -5.34466690958352      0.45501094540227      0.39487682984011
  C   -4.19535383107622      0.34054529522293      0.26339900296029
  C   -2.80850157937340      0.18524296656227      0.09800936778387
  C   -2.16502272703253     -1.02595678653200     -0.26376437298636
  C   -0.79190211505707     -0.80472172335875     -0.27463775469543
  C   0.13337418544841     -1.82948135418094     -0.62995061881604
  N   -0.28327980644532     -2.73804925493796     -1.54044059805496
  N   1.27709268201799     -2.11951260649768     -0.04770037695924
  C   2.24845292549669     -1.47755448019994      0.53549857950242
  N   3.06260392178681     -2.24506343283672      1.32278446142225
  C   2.71022083502248     -0.14054564754080      0.32405053722601
  C   2.06033767139245      1.01520164826807      0.00508214818626
  C   2.73751452962556      2.25791415348918     -0.11456502068553
  C   1.76516251127335      3.22182969218032     -0.17534658596562
  N   0.48954937677059      2.72404117373753     -0.11850824608406
  C   0.58980468652918      1.39889354776312     -0.03772778321524
  C   -0.56807884126251      0.60480947370305      0.05078907534522
  C   -1.83833177752972      1.17565573093394      0.25784540111939
  H   -2.66160214740444     -1.96990995086666     -0.41717650772319
  H   -1.06500367086980     -2.53661564025719     -2.13361531868270
  H   0.29560103573581     -3.53300652784069     -1.74233606181033
  H   2.71998994349632     -3.15736630285188      1.56947285171294
  H   3.64344781585944     -1.78881035264588      2.00235943898532
  H   3.77717742400329     -0.03313524931331      0.49032254336803
  H   3.80645081709394      2.39360882841506     -0.12346217763348
  H   1.91057948359064      4.28842630956850     -0.27359737424931
  H   -2.00937692770892      2.21186541221443      0.48660192510960
