29
Coordinates from ORCA-job ./opt_b97-3c_parallel
  N   5.16033672828717     -0.38162016525724     -0.19756454085166
  C   4.01068821243543     -0.21939599924338     -0.11925378130334
  C   2.63998469802980      0.06283861031773     -0.07161596170175
  C   1.59922824215775     -0.76732436185198      0.40627547963742
  C   0.36664445509557     -0.14673630271257      0.23214143420031
  C   -0.87229295328967     -0.82799647513453      0.25270357807149
  C   -1.07399554157907     -2.19931676723221      0.46017918650386
  C   -0.16751768490977     -3.14957936005173      0.93264903246407
  N   0.56059752490005     -3.96641241561063      1.33288407066941
  C   -2.39269791595495     -2.56821102776710     -0.00266110268238
  C   -3.03602088616691     -1.47713905549759     -0.47816160528777
  C   -2.20152112037791     -0.32078050925685     -0.22522889293368
  C   -2.76869803749585      0.90498554077682     -0.17082847904438
  C   -2.29086006396326      2.11827900131504      0.46757960119369
  N   -3.22291992258410      2.73525353976720      1.24357364098011
  N   -1.16976717086439      2.74408198003251      0.30682798054705
  C   -0.03404974334137      2.38332218774632     -0.28781446880625
  C   0.66234741048750      1.20648664894743     -0.30972982516509
  C   2.08059011539736      1.24605743441405     -0.57521050683476
  N   2.79175357360886      2.28519993360146     -1.08468116475782
  H   1.76319724793733     -1.77111581551130      0.75282060161573
  H   -2.77794571934365     -3.57474155007222      0.04650522336799
  H   -4.05704093844696     -1.42187643454442     -0.81849601522407
  H   -3.81144485598703      0.95504769669129     -0.46657070786546
  H   -2.91130002307461      3.52855697343136      1.77870836142235
  H   -3.97799236525875      2.19624467550537      1.62703765418429
  H   0.49925550806704      3.24729323935021     -0.67588200603700
  H   3.76975935430999      2.11309008229477     -1.25166331471044
  H   2.35893349922237      2.85732096695387     -1.78765690925399
