26
Coordinates from ORCA-job ./opt_b97-3c_parallel
  N   -5.00615438506245     -0.52397476891489      0.05002140040414
  C   -3.87491204699877     -0.25778459324290     -0.01825299808197
  C   -2.50006899076395     -0.00699651931317     -0.07970983428158
  C   -1.86566559497244      1.21766300892413     -0.36976584054371
  C   -0.49155246374123      1.06449516042640     -0.22253448157252
  C   0.39649365755886      2.16568740431482     -0.28815199038218
  N   0.13334286395120      3.17427505793053     -1.13590150110381
  N   1.37501397998441      2.39445599722778      0.59433757299761
  C   2.29448163559198      1.60362835738035      1.03811298385893
  N   2.87175025558790      0.55114559116597      0.46312321192132
  C   2.40251617498253     -0.50698340629252     -0.10522695224611
  N   3.24545688927661     -1.43401694622648     -0.64430723309095
  C   2.49942532931463     -2.52538685572666     -0.79503048951724
  C   1.14690618267056     -2.39707598926164     -0.40042226059737
  C   0.96487404235790     -1.06540330459171     -0.05958452891588
  C   -0.22501988319787     -0.35013355809788      0.10482608135926
  C   -1.50549451883535     -0.97056305508834      0.20000511344630
  N   -1.75237045826283     -2.28998995749774      0.44080421577218
  H   -2.38697475938918      2.14536489399589     -0.53982413310891
  H   -0.60029103214071      3.09626429570635     -1.81470043215629
  H   0.59640167314193      4.05746856109721     -1.01388340324183
  H   2.78897446329298      1.92959041492231      1.95046861128353
  H   2.93784688868990     -3.42054980646840     -1.21841421751352
  H   0.38553243891793     -3.13973250515277     -0.56158392680786
  H   -2.70739282084553     -2.52036969839631      0.66428638316261
  H   -1.08115572710884     -2.77285526571991      1.01470798925589
