27
Coordinates from ORCA-job ./opt_b97-3c_parallel
  N   -5.97487475636939     -0.99703009806246     -0.52395544339289
  C   -4.87536945482575     -0.66692134728838     -0.35001720822552
  C   -3.54736818427256     -0.25667143489028     -0.13244880877221
  C   -3.15258599420809      1.03985187533676      0.31454040411193
  C   -1.77470491876838      1.11176680185666      0.34730672311669
  C   -1.14728197443815      2.30319231940795      0.74178228136311
  C   0.11844699158623      2.81162642231869      0.60984139587040
  C   1.31071340542511      2.32671788820611      0.06216527625227
  C   1.83265809231407      1.07088355774940     -0.19332308692081
  C   3.10484676668372      1.14046397314911     -0.83680312134895
  N   4.09672835338333      1.25798665449931     -1.42833413150241
  C   1.36692789581208     -0.24502308049629      0.10892480933119
  C   2.22774044067389     -1.32801637373431      0.26271300961122
  C   3.61661595781128     -1.32094333419793      0.45063986073279
  N   4.75649992935039     -1.39552955257629      0.66634723089703
  C   1.45769996807344     -2.54606630212737      0.31128818185151
  C   0.14484414234175     -2.24914658343818      0.14728240020875
  C   -0.01323497288666     -0.82144545061047      0.06488611317973
  C   -1.26629539543872     -0.25144361011109     -0.02689454907614
  C   -2.42082556369262     -1.03242359120634     -0.32131540288902
  H   -3.82937791010638      1.84136307895818      0.55948973441712
  H   -1.85609738660882      3.02015886509024      1.14186286034471
  H   0.19237560949858      3.85410684023706      0.89565062715767
  H   2.00990326834208      3.12035104679610     -0.17100566740067
  H   1.88514676389297     -3.52014668246709      0.48576370335363
  H   -0.66411112636086     -2.95445006330033      0.20271331564908
  H   -2.42386714721247     -2.04868181999888     -0.67002672442036
