28
Coordinates from ORCA-job ./opt_b97-3c_parallel
  N   -4.69659757219230     -1.36461984990540     -0.48056710372587
  C   -3.59475058199599     -1.00318821963743     -0.35946792579158
  C   -2.28779879001166     -0.54898470273043     -0.20844852860246
  C   -1.87125839773695      0.82850090021245     -0.22018219279117
  N   -2.72795968926698      1.84264899422508     -0.36661849026485
  C   -0.47224044173560      0.91839981403096     -0.05647982869128
  C   0.21769839259406      2.14443625837002      0.35165139955036
  N   -0.53606897600581      2.96219083414106      1.19284505137238
  N   1.37275957081748      2.57556229745615      0.02343065140905
  C   2.26967975504428      2.07468099266717     -0.87162665540032
  C   2.88442249789335      0.87149865903779     -0.91822294874948
  C   2.59139971026515     -0.33209386827759     -0.21015410179480
  N   3.51226947967270     -1.29346056954730     -0.10805308197625
  C   2.84465271193061     -2.36498130913332      0.41149869181108
  N   1.54902368955134     -2.20610265565406      0.60401745515721
  C   1.31096849964542     -0.88851635076600      0.23170690581631
  C   0.02565375562396     -0.40113807202358      0.10078086882746
  C   -1.15607668930732     -1.31533678565150      0.04822401651189
  N   -1.05828256383954     -2.62576060647785      0.17633568635549
  H   -2.40802328209193      2.78483712638535     -0.21392456683101
  H   -3.71783192390731      1.66895845940290     -0.38666170584970
  H   0.00772188138620      3.72475872110217      1.56873581775380
  H   -1.06823720063729      2.47483908839191      1.89756537488225
  H   2.65368992194106      2.83818594525133     -1.54253774751425
  H   3.74136091833375      0.79377334336055     -1.57470151955423
  H   3.35712500959692     -3.28549118065239      0.64994351814383
  H   -1.87023103138431     -3.21545414489303      0.10971233763622
  H   -0.13057742768354     -2.98596714528499      0.42662372101007
