29
Coordinates from ORCA-job ./opt_b97-3c_parallel
  N   -3.87743921037844     -1.92468606241106     -0.78171504985305
  C   -2.72790493802885     -1.86433026116296     -0.60337967178789
  C   -1.35463281691387     -1.80682596279644     -0.33846942551790
  C   -0.50082206317033     -2.88204602708024     -0.47986956811158
  C   0.83845375341302     -2.43401920834155     -0.36104463400761
  C   0.86714881941619     -1.06259403727787     -0.23119809984552
  C   2.08537000891809     -0.35797635226548      0.12156261744387
  C   2.98176385798296     -1.08205398922135      0.93799909720286
  N   3.76352735128649     -1.63378563816779      1.60238824084132
  C   2.56638335221121      0.84099440722096     -0.37913667830133
  N   3.85707672991506      1.19507903204131     -0.14747169616335
  C   1.87006032578036      1.78372960398580     -1.23515462421457
  C   0.62806521501965      2.28131567707040     -1.12105383461946
  C   -0.46200746639011      1.93771581858135     -0.25734752677487
  C   -1.46391181550317      2.84740308383500      0.08035601425422
  N   -2.52491980714084      2.31932298731294      0.74633075748298
  C   -2.29766955466650      1.01641383921137      0.77438751412602
  N   -3.03401038929524      0.19822047410279      1.51572718514333
  C   -0.99553376734981      0.65666971847820      0.09273261883253
  C   -0.53457211390585     -0.60613792018370     -0.16985727919004
  H   -0.81167221907601     -3.89111259471911     -0.69889491131471
  H   1.70713225526369     -3.07222367028591     -0.35219064394261
  H   4.41999508524407      0.64952090630204      0.48440104716339
  H   4.12589404596229      2.15381901453355     -0.27104026306239
  H   2.51520564870838      2.25996009110813     -1.96479652632749
  H   0.41742605713628      3.12121297317310     -1.77697850882066
  H   -1.46425915633804      3.89810060446185     -0.17656677307319
  H   -3.87319633584280      0.57624526893377      1.92361937955520
  H   -2.97825747165788     -0.79932949963914      1.41343979778240
