31
Coordinates from ORCA-job ./opt_b97-3c_parallel
  N   5.04854066824760     -1.32017193730785      1.02519190569014
  C   4.00027567982705     -1.06758982243882      0.58538216551447
  C   2.72916855303774     -0.70943161148840      0.07962096574476
  C   2.14765678454184     -1.67636759016520     -0.78191288822172
  C   0.87335826411147     -2.00197265897568     -1.13924798723978
  C   -0.39644307239621     -1.62051269984787     -0.64821071411060
  C   -1.47085847201777     -2.48182141412416     -0.74545670120354
  C   -2.60069097495736     -1.90436911561471     -0.11521307456180
  N   -3.78913750869879     -2.49195036101655      0.06020563131523
  C   -2.26401460915268     -0.60035185752958      0.31507388863441
  C   -3.11088366113686      0.15651755425027      1.11118337672200
  N   -3.86444165291992      0.78317205675086      1.74749628276024
  C   -0.90165744134719     -0.35044586085604     -0.04193603890151
  C   -0.28480114812050      0.87900316898436     -0.09373298010589
  C   -0.98152006910714      2.17032938585853     -0.34324545888236
  N   -2.29096036188729      2.37548570182089     -0.59984425482991
  N   -0.11368972594023      3.15238312753580     -0.56440853282125
  C   1.11917263253674      2.62369897829854     -0.37423317339043
  C   1.12023465616548      1.25883587939965     -0.11867745698199
  C   2.30005785011382      0.59666057854924      0.36625406102164
  N   3.14496768704690      1.39199328226988      1.06334000290390
  H   2.88499646538795     -2.37042137926332     -1.17054676149224
  H   0.81924705947828     -2.86775641183947     -1.78971471183671
  H   -1.44122580632354     -3.46474642526067     -1.18842546108136
  H   -4.50613197862559     -2.03696573649826      0.59844763803846
  H   -3.92500126202049     -3.45936560850419     -0.16583692272433
  H   -2.50054811723171      3.33248468806217     -0.83464390423495
  H   -2.99682031911614      1.91711369689445     -0.04806082545971
  H   1.98956694301824      3.26068111056784     -0.43720338244500
  H   2.80119947822656      2.24560014805763      1.46002766289399
  H   4.02136066145945      1.03632599173092      1.40710941268587
