31
Coordinates from ORCA-job ./opt_b97-3c_parallel
  N   -3.35630284861763      2.66870051658554     -0.68000326208138
  C   -2.82473673200197      1.65961282450196     -0.43157684851573
  C   -2.30606377658752      0.40170676814881     -0.13932315936247
  C   -3.13351259961537     -0.74744833612967     -0.07704134237807
  N   -4.47061776833396     -0.72553193585950     -0.19581149146502
  C   -2.32979769423167     -1.88714636606069      0.13383324254659
  C   -0.99454164148931     -1.51131188027327      0.16323631420730
  C   0.02217238183287     -2.41591030332517      0.49444914203210
  C   1.38964932066619     -2.40987023291206      0.26994761271630
  N   2.13662703152371     -3.39180186283593      0.87292874888521
  N   2.13107758469478     -1.66589197051269     -0.57945438562616
  C   2.24755042377435     -0.38044004900577     -0.68312980876184
  N   3.23641088934683      0.04530018747049     -1.54234588061828
  C   1.55104172760588      0.66417214842721      0.01997617528876
  C   2.09564980846550      1.91121508374794      0.34105011903175
  N   3.38007656152544      2.35251389984073      0.24585350674710
  N   1.13886795165080      2.81113509719560      0.77163150310784
  C   -0.01543645777158      2.19685126612524      0.64009254372067
  C   0.12362916955499      0.83047832860255      0.19445859397286
  C   -0.95534978426141     -0.01728920015052      0.02082496836760
  H   -4.92861606667626      0.12892018316085     -0.46414425755713
  H   -4.98266121141306     -1.57816347583915     -0.32327759012989
  H   -2.69585041563628     -2.89431141560771      0.25742508360254
  H   -0.34563517739764     -3.32955512857793      0.95091712215431
  H   1.65717989073503     -4.17428261583317      1.28269003407745
  H   3.01153926497078     -3.60424044286928      0.42591332113915
  H   3.63171773496956     -0.68029048938216     -2.11732962918509
  H   3.09562399451572      0.93054868812093     -1.99878546219177
  H   3.57350851921755      3.18901777798696      0.77006672965030
  H   4.11245567036725      1.66457930202479      0.22959362202210
  H   -0.93524525098321      2.67077280333534      0.94254713880354
