33
Coordinates from ORCA-job ./opt_b97-3c_parallel
  N   5.12339525392481     -0.78802841146774     -0.36272514719166
  C   4.16353501696028     -0.20017269981108     -0.06475764536261
  C   2.99972231894479      0.49879307224494      0.27538498917990
  C   2.95221912391910      1.77620538624982      0.93320502858554
  C   1.65315645880434      2.19367691655156      0.98413804712975
  C   0.81814198269333      1.16834824667954      0.40381861248575
  C   -0.51478965589539      1.31755011219575      0.07349588231802
  C   -1.13794144604366      2.62615698276477     -0.28925701927606
  N   -0.47963898436980      3.77903994745779     -0.37359165823219
  N   -2.40744479428022      2.50923699658159     -0.63736825983101
  C   -2.68908698113423      1.17782037162803     -0.49575336219850
  N   -3.92671047761484      0.74919130920899     -0.74153129797598
  C   -1.56622995584575      0.39153767289595     -0.11035882818615
  C   -1.65290524381145     -0.95952234717422      0.39181951568416
  N   -2.81532838955018     -1.23967802321168      1.09727256965248
  C   -0.72374376485207     -1.94133798189147      0.18310051926595
  C   -0.90230552653385     -3.17294627094284      0.84523131720371
  N   -1.08557022373601     -4.19259642869451      1.37932233422193
  C   0.37182159701800     -1.91526070839944     -0.81096520745333
  N   0.29564968874968     -2.93828009448890     -1.73202647918432
  C   1.42097573087089     -1.05584963268856     -0.83093986407489
  C   1.69791721618933      0.07377338807463     -0.01132638878001
  H   3.81042942403298      2.28010898847990      1.34832082031446
  H   1.29029967489009      3.04334106041808      1.54116277574385
  H   -0.93397705245375      4.56077988700031     -0.81350719958938
  H   0.52324837873216      3.78238448241094     -0.28194552971380
  H   -4.17459041000506     -0.20535186136972     -0.54549525274651
  H   -4.64538961723273      1.42424057638261     -0.93279688044646
  H   -2.84903993481865     -2.15115651270983      1.53032776642288
  H   -3.10816636137790     -0.50918844469010      1.72767010796576
  H   -0.24013574603140     -3.74772475372540     -1.46686431236362
  H   1.14716637475197     -3.16931541923149     -2.21787799327943
  H   2.20994464740495     -1.29947205962898     -1.53726759428793
