32
Coordinates from ORCA-job ./opt_b97-3c_parallel
  N   6.10096667293721     -0.51625101980397     -0.72935959354834
  C   4.99786448990726     -0.27121243171359     -0.45985159520758
  C   3.66985348065847      0.04443928222578     -0.12603768998862
  C   3.25807191408194      1.20059819580431      0.59207103511922
  C   1.87381505705127      1.22993251531752      0.65081049626950
  C   1.22092768322840      2.27766003137158      1.32699508401129
  C   -0.02573546845150      2.81927688804170      1.29477698682960
  C   -1.15178419170860      2.60155721310175      0.45150216850625
  N   -1.91649469501516      3.70247485050582      0.27734039539701
  C   -1.61133631032772      1.40008007554340     -0.14315772466635
  C   -2.75827368890554      1.57201745981166     -0.95625060847155
  N   -3.65220613038407      1.81907051453658     -1.65895913369744
  C   -1.22165334700091      0.04763099483273      0.05909044422145
  C   -2.16195073037098     -0.98461216867763     -0.00288268066813
  C   -3.55653801940010     -0.92690799392310      0.06993777705164
  N   -4.71324892615952     -1.00955798838403      0.16621339893725
  C   -1.47641803517811     -2.24165733369285     -0.03188894142906
  N   -2.06773707849479     -3.42762705189049     -0.01835411261353
  C   -0.08896957980246     -1.99610239569111     -0.02230944546572
  C   0.81973416591604     -3.05468041193445      0.04519819715515
  N   1.47341482062884     -4.01695552489141      0.09518748719287
  C   0.13007738039168     -0.59621417062463      0.05583134919497
  C   1.39335012286313     -0.01535412872264      0.01876646505516
  C   2.54244555109150     -0.70317382096388     -0.44306449042122
  H   3.92028335430171      1.94543574346867      1.00246560041373
  H   1.89931628746183      2.83340851936923      1.96618454784477
  H   -0.13578594135462      3.70447243093045      1.91005944383959
  H   -1.57795292136704      4.60119055478288      0.56375039845386
  H   -2.75650059917396      3.67776934415043     -0.27540852091787
  H   -3.07060491322730     -3.50317687296811      0.00742978932577
  H   -1.52308823540819     -4.27365064581925     -0.00765480131710
  H   2.55193709691241     -1.63341295999308     -0.98065346230732
