25
Coordinates from ORCA-job ./opt_b97-3c_parallel
  N   4.37683305509553      0.26608893519852      1.05452587668084
  C   3.26520542166771      0.23798043547363      0.70975090805821
  C   1.92799907561097      0.23158820391171      0.25424560249616
  C   1.26567006620722     -0.96960990252871      0.29194072306351
  C   -0.02039683336350     -1.39202114104435     -0.06853942762050
  C   -0.36349000195870     -2.75741061028560     -0.13618515301934
  N   0.43138972651937     -3.83443169361017     -0.09180461064788
  N   -1.73145615855634     -2.97018649968280     -0.24560445667253
  C   -2.27806930712124     -1.78318417818726     -0.21303169785288
  C   -1.30391068204370     -0.71320274784122     -0.13156618327056
  C   -1.68117987044985      0.59302576820134     -0.01710421630835
  N   -2.97892410860570      0.96009182223434      0.24114354778559
  C   -2.88762036615567      2.25503234460237      0.48437201432220
  N   -1.66009223353897      2.85397761725767      0.35124152514274
  C   -0.85398909245459      1.85863513579565      0.00707031944811
  N   0.37631908949091      2.08928415135322     -0.42206227674426
  C   1.50160052929996      1.45711889690257     -0.45614754240371
  N   2.46308135059849      2.00875050393595     -1.22731706908310
  H   1.89073598721942     -1.77024109919429      0.67843274289773
  H   1.42056175279581     -3.77003585403974     -0.23917093505481
  H   0.00100524410222     -4.73650586844534     -0.19062894713452
  H   -3.34454648061829     -1.63352313115033     -0.26733354860557
  H   -3.75014940945807      2.83976813608859      0.77239824467016
  H   2.29711878939555      2.92570329753024     -1.60331067234331
  H   3.40206508322154      1.65359065302401     -1.22443238950388
