34
Coordinates from ORCA-job ./opt_b97-3c_parallel
  N   -3.32055819244947     -2.45169033383350      1.61165970182505
  C   -2.46118520594340     -1.96345577813376      0.99242631642847
  C   -1.39985434024581     -1.42441195609102      0.24007128481040
  C   -1.55622061880527     -0.07043106957121     -0.23667369163763
  C   -2.77487333277717      0.50439104206236     -0.46844103267983
  C   -2.60425317061656      1.92290763884991     -0.63973002272202
  N   -3.62927882331578      2.76654220032921     -0.95208180641197
  C   -1.27893674237672      2.25034911040012     -0.41960134086614
  C   -0.55654775656898      1.03767499785400     -0.18517532070157
  C   0.77853158278791      0.95857324489033      0.15086799656976
  C   1.50886561213502      2.06100859238306      0.80947619077367
  N   0.92701596792528      3.21668730104473      1.23703348285166
  C   2.82050082677704      1.69129223348939      0.97816904757238
  C   2.98857044118646      0.40314800847876      0.39833754899422
  N   4.19971639733335     -0.20100416294759      0.27661974641865
  C   1.74935605063470     -0.08686475637831     -0.06282838846910
  C   1.59430342688968     -1.22502546289879     -0.92826108170405
  N   2.64387584166505     -1.46915270983218     -1.80258008610544
  N   0.62721485157349     -2.08237605249528     -0.97067094164907
  C   -0.33510238157653     -2.27195449529559     -0.02814074552854
  N   -0.23718645188823     -3.48217623689462      0.59767955701361
  H   -3.72367854143094     -0.00961476097798     -0.45401318855336
  H   -3.38930668933318      3.68592953815220     -1.28009772429046
  H   -4.43064865720108      2.36623837031359     -1.40788217541926
  H   -0.82812820385052      3.19871329844212     -0.66532583276749
  H   1.38392135376116      3.68819893463117      1.99930641862881
  H   -0.08005562916410      3.19587944290124      1.30567943405946
  H   3.59331053083621      2.26372379847048      1.46790268186459
  H   4.21618760195468     -1.16904411794105      0.00487972395878
  H   4.93708348550910      0.09634009924830      0.88960663871939
  H   3.06987830036318     -0.65331991218160     -2.21172693273782
  H   2.44298658347743     -2.20149608482335     -2.46536040850499
  H   -1.04293835619081     -3.82452727302444      1.09607231958280
  H   0.29885620542516     -4.17543254042033      0.10654690357700
