25
Coordinates from ORCA-job ./opt_b97-3c_parallel
  N   4.18784086747344      1.50443746060589      0.70464823996548
  C   3.10769794403928      1.14957736302940      0.47273394369863
  C   1.73223128502698      0.85232141141596      0.22381686926725
  C   0.93335973797035      2.01726237142662      0.19231653192550
  C   -0.37034455767675      2.34438286933678     -0.05989727211579
  C   -1.60046615419528      1.65287966352482     -0.18706983087986
  N   -2.63856684718639      2.44870510808378     -0.54027537345536
  C   -1.92033553954788      0.31479290609750      0.12776693813480
  C   -3.22566343951519     -0.08689943720186      0.42803590312779
  N   -3.32526386151949     -1.41971158904949      0.65579960673721
  C   -2.11408417027946     -1.92663442083073      0.44369661251700
  C   -1.14358668051394     -0.93534555721041      0.12840380327541
  C   0.17938155866313     -1.27304601837171     -0.15545800460004
  C   0.61696438841331     -2.57819641388339     -0.40877818970842
  C   2.00568697801706     -2.53995213950087     -0.44768181438331
  N   2.51780093571883     -1.31392348386238     -0.20845917139140
  C   1.46778993113447     -0.48744526335911     -0.05629182432220
  H   1.54207881014306      2.90274021094396      0.32736369817449
  H   -0.49864810087728      3.41788595165361     -0.15388487895486
  H   -2.49862247775587      3.42256472234389     -0.73409836560553
  H   -3.51649727188970      2.04938738038748     -0.81148327841037
  H   -4.08647024931062      0.54643225724308      0.58226656261817
  H   -1.92009914758442     -2.97755491193617      0.58524330289438
  H   -0.00492542201526     -3.43883815632323     -0.58143466244973
  H   2.66956071966867     -3.36498947736263     -0.66483684736027
