29
Coordinates from ORCA-job ./opt_b97-3c_parallel
  N   -1.72081708315513      3.44116816764902     -0.83387638310268
  C   -1.20724660345542      2.28913176830543     -0.28989378843584
  C   -2.13047147237198      1.52703809256948      0.46271217513259
  C   -2.30417381707323      0.15775587741486      0.58734053549682
  N   -3.50045438693768     -0.21977532977648      1.17957131359142
  C   -1.52825504924256     -0.93020520423671      0.09472985747643
  C   -2.07648931279193     -2.20398444455880     -0.05486004037811
  C   -1.08519832666736     -3.15809183413763     -0.33355764049971
  C   0.14532243799084     -2.52026881969769     -0.32228045775020
  N   1.35708841310041     -3.06873913737831     -0.58353751309235
  C   -0.07613587975573     -1.09177231137893     -0.09400668058209
  C   0.97199386072781     -0.20737473771751     -0.02479964784348
  N   2.27028729302424     -0.61014218867277      0.08739613216207
  C   2.96620589268863      0.53492436389361      0.15535029572060
  N   4.29642421232223      0.54875939246979      0.31577329283549
  N   2.27811002154396      1.69686435106188      0.03148318611453
  C   1.00364858274524      1.31244726019362     -0.10517509636701
  N   0.09561430449064      2.19544335218557     -0.44556028488703
  H   -2.67317696507079      3.43647504933675     -1.15178477091857
  H   -1.06803039131977      3.98764055777980     -1.37007914372401
  H   -2.94461449400755      2.12625585437346      0.85606952551712
  H   -4.01585753612260      0.51197947175211      1.63650281629965
  H   -3.47323945700552     -1.07450507814447      1.70700152224143
  H   -3.13037834961749     -2.42756786383260      0.00185632701090
  H   -1.25235850273716     -4.20340429565532     -0.54308513026286
  H   2.15370492898551     -2.50526008236738     -0.30839483796910
  H   1.43890451748169     -4.06785303880153     -0.53011763645077
  H   4.76679855440077     -0.30282675991317      0.55955067666263
  H   4.73984444103111      1.42467344588359      0.52190620480201
