29
Coordinates from ORCA-job ./opt_b97-3c_parallel
  N   -3.56001206644540     -2.60170094988538      0.70373407042663
  C   -2.64115770140505     -1.96743546278729      0.37518653604662
  C   -1.44544879292120     -1.30949225051129      0.00902002322520
  C   -0.29700925875553     -2.13823012617371     -0.07422489542550
  N   -0.36530903373827     -3.36454142504141      0.49065895021300
  N   0.81811808699880     -1.93823076290344     -0.78293560187040
  C   1.77049292085596     -1.05797313594733     -0.74822699478981
  N   2.86913569066546     -1.36425697824297     -1.51742844809807
  C   1.85531850896870      0.14535806405724      0.01820268042909
  C   3.03869089874303      0.77336875987995      0.42969776843586
  N   4.32339628058146      0.32521580357501      0.37973657783928
  N   2.81858264213727      2.04799583241981      0.90999390870056
  C   1.53150457437494      2.27640990586734      0.74539100513716
  C   0.82741583001807      1.14484387018733      0.21423898934220
  C   -0.52726767225885      1.18748082425288     -0.06226064056634
  N   -1.20695042598769      2.36021221923719     -0.10055384349403
  C   -2.48133644781881      1.99306581361268     -0.26471411552554
  N   -3.47756660696954      2.87017015432075     -0.39651876835493
  N   -2.74133725462004      0.64759885212832     -0.31836057284152
  C   -1.54575842236421      0.08325636373004     -0.20743010014843
  H   -1.23672254651930     -3.70343114562619      0.86326445837850
  H   0.31837506148136     -4.04145895815343      0.20499235308683
  H   3.38896367779641     -0.59297267439491     -1.90134347489365
  H   2.74501103829460     -2.14998058636492     -2.13426633148306
  H   4.47100930432668     -0.66854384504677      0.34197916890331
  H   4.96479595998965      0.83929785985390      0.96024508203925
  H   1.07176720148026      3.20704653018038      1.03647319261303
  H   -4.42065152994416      2.53810449053499     -0.47177299491876
  H   -3.29544356976811      3.85200954324224     -0.30705961620902
