24
Coordinates from ORCA-job ./opt_b97-3c_parallel
  N   -5.27571074250881     -0.08719752664312      0.07678850604660
  C   -4.11869308156364     -0.17296555799710      0.05047358075090
  C   -2.69430731444610     -0.26177709773674      0.01989736852180
  C   -2.20496047446157     -1.55244435069290     -0.04724234493207
  C   -0.93673242946511     -2.14096944805924     -0.06797179232527
  C   0.37863081367515     -1.74015841793792     -0.03449466098282
  N   1.28547320824822     -2.77509924170783     -0.02434338761642
  C   2.48195853825322     -2.22717342910055      0.02650136624709
  C   2.45157789097788     -0.80327550764442      0.04145473288325
  C   3.61010100591096     -0.02164419637709      0.10810740124972
  N   4.60412572125949      0.57909454895325      0.16483445641401
  C   1.10200913987531     -0.42383385947490     -0.00113104963824
  C   0.61653999796773      0.89318858515762     -0.05061823283605
  C   1.41988404115976      2.02790319476401     -0.11740455468208
  N   0.71257071464618      3.19765949732136     -0.09656608922748
  C   -0.56140703621093      2.87072550852950     -0.00237110710745
  C   -0.77082573407485      1.45650790384379      0.01906504699448
  C   -2.05572828685220      1.00643844557959      0.05424045744900
  H   -2.99282483648320     -2.29464837190837     -0.07499730345993
  H   -0.98422497863986     -3.22214420281019     -0.10315704116584
  H   3.37880976450516     -2.82929273180002      0.05855793461240
  H   2.49194203318056      2.06310649830473     -0.18634596135444
  H   -1.34268873028107      3.61666618522383      0.03089327013725
  H   -2.77450151307205      1.81682635121249      0.10378629202140
