23
Coordinates from ORCA-job ./opt_b97-3c_parallel
  N   -5.09006157234429      0.86850771827710      0.19618259818926
  C   -3.95293120479422      0.63473402163851      0.15266955497858
  C   -2.58153603392712      0.33149555253360      0.09219007037028
  C   -2.04622697307138     -0.97141231141133     -0.14964086702998
  C   -0.66951970496136     -0.89730234570821     -0.09329697221414
  C   0.18720047466973     -2.01869599149834     -0.35557675530248
  N   -0.21272057136302     -2.90893593882802     -1.27607931381334
  N   1.23877139938982     -2.35126394978864      0.36635956076872
  C   2.19472807200856     -1.66961207484821      0.92628218993679
  N   2.79382314512890     -0.55765470159337      0.54055142338686
  C   2.34160111908675      0.56117139671801      0.05744900643106
  N   3.17127887744022      1.55176265791287     -0.33998694919819
  C   2.36775787601692      2.61536120303389     -0.42954530051187
  N   1.04643920745833      2.45425395893858     -0.17029798081255
  C   0.92139856709579      1.14404882712426      0.06897166844373
  C   -0.31251180411802      0.50720118734819      0.15584973363403
  C   -1.52997075069995      1.22418008056413      0.23876807025629
  H   -2.63598015494184     -1.86166561797214     -0.29555081941733
  H   0.29127155877284     -3.77129965662117     -1.38686542968647
  H   -0.97634431671228     -2.70371973192237     -1.89220034723298
  H   2.68704189727433     -2.17137167909578      1.75592945495078
  H   2.75518478654532      3.58560015632693     -0.70826864502679
  H   -1.59986572305412      2.28725024437150      0.38478282609976
