31
Coordinates from ORCA-job ./opt_b97-3c_parallel
  N   -4.62510145990187      1.70255598763388     -0.62092155168187
  C   -3.62572732568191      1.13983060384782     -0.41967940106312
  C   -2.45942150393748      0.41416639577623     -0.16251350784860
  C   -1.14060276473138      0.89197599830303     -0.18623703695202
  C   -0.85068336597785      2.24237050808372     -0.62717463405377
  C   0.05530323689741      3.11422213758659     -0.16831802942382
  C   1.02303821423570      2.95298551900772      0.90503818276457
  C   1.90436612512145      1.96249901014324      1.06010556268670
  C   2.05496977586793      0.77427737237633      0.23966452869461
  C   3.31751493947664      0.21032651547345     -0.09786332094658
  N   4.50714445801554      0.77169450332725      0.11776428740066
  N   3.24868974578065     -1.03918950015317     -0.64234739531085
  C   1.95880265394306     -1.33443981356707     -0.62895662537595
  N   1.49205870216662     -2.42456116063162     -1.22122529696876
  C   1.12151649263326     -0.21968516354974     -0.05545422070883
  C   -0.27220422535204     -0.21897218313343      0.06947100356076
  C   -1.11568416603504     -1.37782870805374      0.29498392081600
  C   -0.75552368615069     -2.63676961608929      0.76782180618346
  N   -0.49272977723490     -3.71684817372298      1.12540101345697
  C   -2.45226524931830     -0.97822773830026      0.17723917337267
  N   -3.55481370693022     -1.74300611327260      0.32867565359664
  H   -1.54273510520777      2.61735657703813     -1.37462321359417
  H   0.01049379852434      4.11514106267945     -0.58812363794240
  H   1.06548760818666      3.77739544978818      1.61111830316301
  H   2.59186670063740      2.03941923865099      1.90113234241974
  H   5.33708029498666      0.28596234600184     -0.17184562244987
  H   4.57848562780938      1.73658163340079      0.38304124545578
  H   2.15738891027519     -3.09652125832901     -1.56426235250461
  H   0.54647727550381     -2.73195340714259     -1.07935466151202
  H   -4.43897543920745     -1.28662689606919      0.47074491214512
  H   -3.45445004149481     -2.64817257960395      0.75457081772058
