24
Coordinates from ORCA-job ./opt_b97-3c_parallel
  N   -3.90187479534681     -0.66559755245912      0.16000389319338
  C   -2.77370299857649     -0.95186845001255      0.08524121769445
  C   -1.43951248447628     -1.34615522862568     -0.00251513176316
  C   -1.07318580333506     -2.62581316180664     -0.54926279697001
  N   0.20974741274829     -2.81330849714523     -0.71959365179110
  C   0.81434577816443     -1.67459847238932     -0.21891441095871
  N   2.05607187684330     -1.69956917748857      0.08327768862305
  C   2.87228533949568     -0.79159793545668      0.64179652434871
  N   3.18768701871616      0.38257044957911      0.22132222720948
  C   2.45397363256501      1.21129442799459     -0.53701375737753
  C   1.11337035306335      1.47562139286991     -0.42749198571255
  C   0.62891534297142      2.77886147219269     -0.72491793800151
  C   -0.59357015080682      2.96706339896934     -0.13172052515964
  C   -0.99033708997138      1.75924777500645      0.50225429801161
  N   -2.09246258223578      1.65069779022188      1.26468971448721
  C   -0.00233725166944      0.75402841915298      0.25086915145250
  C   -0.24538933905081     -0.61075311477623      0.11392162557836
  H   -1.79325222908908     -3.38160924619156     -0.83451426325624
  H   3.45767396277503     -1.18482083012501      1.47006718164781
  H   3.03794917881723      1.90255798522143     -1.13642554483813
  H   1.20768884336271      3.53512202362941     -1.23227949795664
  H   -1.15895161379332      3.88606180854577     -0.10896490623953
  H   -2.84010678879714      2.30681832710190      1.11681077822380
  H   -2.40937503977404      0.74568060049066      1.56351095815460
