30
Coordinates from ORCA-job ./opt_b97-3c_parallel
  N   3.81137682048654      3.72476973798508     -0.39153775585491
  C   3.03686635811272      2.86773530100101     -0.27043704472288
  C   2.10534017376687      1.79672462273800     -0.13188811397475
  C   2.71450603889197      0.52346810443404     -0.19387905388589
  C   2.30505244825617     -0.77263164995421     -0.05640402941087
  C   3.30262044073057     -1.77865659407126     -0.06655576808375
  C   2.74790494409696     -3.02480046189924      0.09309552178298
  C   1.34713381294461     -2.89020849060988      0.18098864228168
  N   0.49537766577211     -3.90790190814599      0.33653703994105
  C   1.00036710420377     -1.48512746604561      0.09786019362465
  C   -0.31140345352717     -1.06572619718553      0.03703705569003
  N   -1.29841811240793     -2.02125742671018      0.00468897172110
  C   -2.46389929630850     -1.39748601912444     -0.10639982031196
  N   -3.62551337994376     -2.03473144433853     -0.21255453700501
  C   -2.32093186800745      0.03113466290817     -0.10913251954406
  C   -3.43894462021149      0.84131279037496     -0.31738911617995
  N   -4.46922839204812      1.33609481707985     -0.53963358573720
  C   -0.95516262182772      0.30220494126782      0.01633399496845
  C   -0.45857070126617      1.61079726046185      0.21605233242615
  C   -1.43932973843075      2.57921691485009      0.58342706759743
  N   -2.17443992153517      3.40239382546836      0.94552146672570
  C   0.80392920132752      2.21076751058625      0.10660543897700
  H   3.78549501284426      0.59843459454539     -0.33891647814969
  H   4.35497206177683     -1.56804808571604     -0.17509994705272
  H   3.27991967090399     -3.96250316333599      0.13944247254981
  H   -0.49064201540688     -3.68378897044220      0.24309474031807
  H   0.82678722764763     -4.85309263658058      0.27178508962885
  H   -4.48017430960209     -1.51939419875938     -0.33493026401725
  H   -3.65263740689381     -3.03739288958138     -0.24550873273214
  H   0.73769287345443      3.28470075149958      0.22212955363008
