34
Coordinates from ORCA-job ./opt_b97-3c_parallel
  N   -4.02167133139679      2.05255270155177      1.75512828392382
  C   -3.19997454199763      1.52369910256264      1.11713528228078
  C   -2.23177007206702      0.86582199496559      0.34578419420245
  C   -1.79231302411183      1.54664160520168     -0.90113412847113
  N   -2.80169605044959      1.83111275318971     -1.76450087883223
  N   -0.60154563409958      1.89974834292476     -1.22429911629469
  C   0.53164787730353      1.66486742153253     -0.50750186388684
  C   1.50313636934123      2.62686226221686     -0.33690286490924
  C   2.66899052032429      2.01371970074651      0.18950006621066
  N   3.80654971776828      2.65237168114003      0.52704982418735
  C   2.45661169770797      0.62108460873004      0.29009027024654
  C   3.34792104118337     -0.22278155303520      0.93565362324417
  N   4.13604318245546     -0.92653745033843      1.43833618370836
  C   1.09911063597691      0.35696139422578     -0.11005609159385
  C   0.46692480867741     -0.86489689238084     -0.22120386145527
  C   1.10273158118661     -2.15838187711618     -0.57769721353702
  N   2.37449566895248     -2.35675589226217     -0.93151149274534
  N   0.21455128504124     -3.14038095120845     -0.69555016143299
  C   -0.98474291831001     -2.59520127442759     -0.35890228092613
  N   -2.07301136906550     -3.37685540244133     -0.35039847952675
  C   -0.91720734319345     -1.20358382975281     -0.08245649052454
  C   -1.94612494748032     -0.45933989455772      0.58272621551028
  N   -2.72995059620758     -1.17806375470388      1.47072805379786
  H   -3.75026432124375      1.78155074464676     -1.44125724489271
  H   -2.60286768416813      2.47721534257409     -2.50930287081739
  H   1.40983593923767      3.65907541639243     -0.63193295025434
  H   4.51773975591514      2.14494047043274      1.02564896576689
  H   3.78433673967309      3.64405710526157      0.67894528081939
  H   2.63434781970117     -3.30799287086526     -1.13041554753040
  H   3.10533764889417     -1.75486017657168     -0.59303135427286
  H   -1.94903550897689     -4.36679292766251     -0.46263400026844
  H   -2.93583186897417     -3.02488788842793      0.02455463713223
  H   -2.21967986095380     -1.81714077923960      2.05990755284621
  H   -3.40907120484383     -0.63718846410393      1.98528645829515
