32
Coordinates from ORCA-job ./opt_b97-3c_parallel
  N   5.00511181368932      0.78342438738301      1.00135408140119
  C   3.95581613057900      0.60130167480126      0.52998871956341
  C   2.67688066279195      0.40467251673152     -0.02321525331707
  C   2.62522556529192     -0.36924449992128     -1.27883631548111
  N   1.93791272739611     -1.40066413513803     -1.55147895690098
  C   1.05073487170616     -2.02323958568580     -0.69039656855039
  C   1.02051080577490     -3.39470613500467     -0.53321929132203
  C   -0.13899918698230     -3.75010825338547      0.19455528380559
  C   -0.91167082040663     -2.61745891729543      0.41108628244554
  C   -2.05126471603002     -2.57942062764454      1.21866003156182
  N   -3.02867767731271     -2.53173608388107      1.85316297200099
  C   -0.16679414485560     -1.47608410446455     -0.10878657852859
  C   -0.54930609142574     -0.14541776677727     -0.12713135286411
  C   -1.95461232360609      0.33293385050640     -0.32996156777993
  N   -2.99089790042934     -0.43397751855492     -0.62754352216263
  C   -1.94944158760247      1.72300447788658     -0.34055034575032
  C   -3.03429158935605      2.56412512675847     -0.57599431918084
  N   -3.93318019460382      3.28020586856715     -0.76762699716947
  C   -0.59932139277413      2.14527985007452     -0.11326796128344
  N   -0.24331055447835      3.42279244992955     -0.03168741195869
  C   0.25455794261977      1.01277706956160     -0.00732349950715
  C   1.61643815581202      1.10065139516665      0.48769013205321
  N   1.81374694205750      2.06026027291291      1.46694604974441
  H   3.31521542281708     -0.03781028591219     -2.05430496346236
  H   1.75070409228826     -4.07540599910913     -0.93837967120452
  H   -0.38538913042327     -4.73693857284993      0.55206745581114
  H   -3.90240277108153     -0.01790981601604     -0.72569275825814
  H   -2.96553690576945     -1.42619590474445     -0.46392036574797
  H   -0.93625358557230      4.15078631814765     -0.06921782287468
  H   0.70234501807233      3.66318378077915      0.21746101716106
  H   1.08693095773824      2.11001557992777      2.16385769299470
  H   2.73772884567527      2.07861230025070      1.87390834326126
