29
Coordinates from ORCA-job ./opt_b97-3c_parallel
  N   -4.72985370737619     -0.60143268742345     -0.46181205321364
  C   -3.59702505283112     -0.53879275019590     -0.19852813369354
  C   -2.21760376484255     -0.42618702384925      0.09861634510494
  C   -1.70629312549273     -1.55819426771654      0.78995743143275
  C   -0.47986960832395     -2.14346743839650      0.88375692250668
  C   0.76227098984658     -1.90427390288462      0.25879614302793
  C   1.70111796407019     -2.90414096287591      0.11879021303297
  C   2.85406434804707     -2.39124341222451     -0.53978026374079
  C   2.71458788666111     -1.04117007373603     -0.72426364607173
  C   1.42046477865842     -0.64404279570154     -0.23256263671570
  C   1.02534292257125      0.65423772789296     -0.05072327393543
  C   1.99617046413575      1.76437704231042      0.06925127374923
  N   3.36040013695968      1.63017665024681      0.09400695102037
  C   1.30102883448221      2.93253532165799      0.25582651018624
  C   -0.08142288266890      2.64457583637957      0.20644912047182
  C   -0.31114473957915      1.28485753514902      0.06340143837645
  C   -1.62741330801394      0.80601983535430     -0.23849984767218
  N   -2.45354798121415      1.75178079424939     -0.77887439168852
  H   -2.49523623233183     -2.14633923241428      1.24467586872389
  H   -0.49344834373806     -3.07864241411406      1.43328142683588
  H   1.55927463570317     -3.92630214597522      0.43313019482965
  H   3.69413282115796     -2.98542420466877     -0.86861622806639
  H   3.37370444529002     -0.41062683010519     -1.29514480053538
  H   3.70607499977196      0.71918043533065      0.35421523590401
  H   3.84590751424432      2.37937807351510      0.56009295349452
  H   1.73393810169939      3.89985017451101      0.45880303584976
  H   -0.85692518929338      3.38761009789912      0.30623748778857
  H   -3.39301386123515      1.49480257486185     -1.03146374976494
  H   -2.03394396325876      2.47658293372402     -1.33065873693803
