33
Coordinates from ORCA-job ./opt_b97-3c_parallel
  N   -3.15360806041868     -3.68815625113468     -1.31622885614042
  C   -2.47890602666821     -2.84977634910379     -0.86884619219229
  C   -1.69422287610219     -1.83495573432175     -0.28612451894920
  C   -0.34586618638508     -1.83000222712084     -0.54290545978731
  C   0.69227190954169     -0.98204471149059     -0.12959187729590
  C   2.03143779363315     -1.42308854623908     -0.17959830387520
  N   2.45908233999520     -2.68232266839371     -0.41807111905983
  C   2.91479798596056     -0.31985745977064      0.01864757475174
  C   4.29952958851458     -0.39294884982797      0.15217488141076
  N   5.45835891682483     -0.45624867466389      0.26376781501698
  C   2.13151432503544      0.83199199465897      0.14637510177251
  N   2.61256838382511      2.07107388675278      0.36616413753600
  C   0.72964229606035      0.46616662816242      0.06158868710784
  C   -0.28242384306400      1.40033318571296      0.00959741393400
  C   -0.15753856322956      2.75760649747517     -0.38371467042076
  C   -1.43374337288685      3.31281267395129     -0.39173612356739
  N   -1.77095698134538      4.55453884896417     -0.79804566443815
  C   -2.38703322498257      2.36227239838680      0.11460044059450
  C   -1.73791292804034      1.18632708756798      0.35799201845821
  N   -2.30119001842210      0.17800604118959      1.06637738367961
  C   -2.33155165616770     -1.08276311434394      0.81871132717921
  N   -3.01512309792738     -1.86778478578759      1.69446480949912
  H   -0.02056690385261     -2.66278476968508     -1.16242521455417
  H   3.44296202176989     -2.87330125579156     -0.34234315944397
  H   1.85593537124705     -3.45328014930882     -0.19871112568564
  H   1.96910988069265      2.76337770721824      0.71567482861207
  H   3.56713789735272      2.15570077368272      0.67366410943991
  H   0.68814418470105      3.18041683053515     -0.90113613106127
  H   -2.73169991682065      4.75766631464217     -1.00644214702887
  H   -1.09099352951532      5.12040595580114     -1.27353249511880
  H   -3.41765580148149      2.56691989798818      0.35478031499237
  H   -3.23346081783686     -2.81532049066430      1.44494148518811
  H   -3.64031915570729     -1.40292053894136      2.32932755014598
