32
Coordinates from ORCA-job ./opt_b97-3c_parallel
  N   -5.55677729141582      0.45944320075093     -0.65959505337789
  C   -4.46480445754757      0.62810801388797     -0.29472578962833
  C   -3.14943505577635      0.83657583299446      0.14105793957389
  C   -2.70624656961190      1.96678497803592      0.91699448189463
  C   -1.35064125355618      1.88819555587418      1.04036432137602
  C   -0.89648729352841      0.66902013554379      0.40248311375799
  C   0.43793245919271      0.33897004211352      0.18808583741600
  C   1.48043366369196      1.39449634139942     -0.03603920047145
  N   1.21828827367274      2.69227382186620     -0.14236994927909
  C   2.70160259637514      0.77706432381458     -0.23898339716183
  C   3.91160971165569      1.39090601223317     -0.54820010207949
  N   4.92930594588942      1.90088689294303     -0.80028320978266
  C   2.46232580949522     -0.64444940824022     -0.15880118984076
  N   3.42212264540352     -1.55499908322267     -0.29685807116309
  C   1.08790912143473     -0.90128348600985      0.07227082445702
  C   0.58280691795657     -2.23376650540910      0.40489458325965
  N   1.49663711770417     -2.98550519339943      1.19018368323558
  C   -0.53804919451274     -2.81200992947119     -0.05592208094388
  C   -1.52543117010256     -2.31357322373177     -0.98400724302759
  C   -2.17431412620931     -1.13703198861174     -1.01040986583889
  C   -2.06282031580877      0.00334918412309     -0.13625847560392
  H   -3.35817664406896      2.71088794610820      1.34452660002229
  H   -0.74226619351143      2.51918222426026      1.66939893331689
  H   1.93466940383686      3.33426318136730     -0.43578438578247
  H   0.26360889675688      3.01239632515480     -0.11674754031292
  H   3.19803484179702     -2.51096684147215     -0.05153605878762
  H   4.38668667286190     -1.27151954527675     -0.33378164655149
  H   1.11219322578932     -3.87403076350079      1.47709066538151
  H   1.80529596279856     -2.47618701529203      2.00834333552573
  H   -0.71317474361147     -3.83851029860993      0.26011547195351
  H   -1.88570240019332     -3.05880571894791     -1.68749769719703
  H   -2.97508733295889     -1.05658226647484     -1.73771678713892
