29
Coordinates from ORCA-job ./opt_b97-3c_parallel
  N   4.36274384457321     -0.33544820988291     -1.16719379854893
  C   3.30257093101048     -0.21848636248071     -0.69396371712083
  C   2.03001321350708     -0.05423531902646     -0.10624326482064
  C   1.83963062878584      1.21580021411394      0.50662821366729
  N   2.97089571080794      1.93504683283508      0.75106912502052
  C   0.66497399561903      1.89994863288369      0.87441593111409
  C   -0.63921476517217      1.81084280195864      0.45531020251203
  N   -1.43996770236886      2.90851025244074      0.58682854744012
  C   -2.59158981884772      2.54607402047747      0.01687803446125
  N   -2.68636352042543      1.29108084795663     -0.44437834671017
  C   -1.46962247036299      0.73098986479317     -0.15023238918649
  C   -1.27933669985382     -0.63065418112886     -0.13216134875692
  C   -2.42066496351371     -1.54304118821075     -0.19437602974750
  N   -3.66014219755184     -1.17508191982503     -0.54400009147849
  C   -1.99562384883873     -2.80897781491021      0.22274709942872
  C   -0.63009917707317     -2.75305883151070      0.45970125544354
  C   -0.11552482168148     -1.46038379032552      0.21468978673748
  C   1.25708653625336     -1.26150083490802      0.00128209264726
  N   2.00006534077291     -2.40152988545684     -0.12792413489134
  H   2.89815660751816      2.92754671615636      0.87972986351705
  H   3.86430603385282      1.59348135640522      0.44156895870094
  H   0.84693422684384      2.83003892666529      1.40038860421547
  H   -3.41353277932452      3.24192035218108     -0.08232730382635
  H   -4.43367296365818     -1.77527806258813     -0.31857121973889
  H   -3.80178814240367     -0.16760514877815     -0.65027356270904
  H   -2.62967590561665     -3.67197317415861      0.35237489875903
  H   -0.04625479814776     -3.59073151182087      0.80827052649531
  H   2.99045301090313     -2.33180677884587     -0.28145089411299
  H   1.56083142819189     -3.21650176881093     -0.51347004831214
