27
Coordinates from ORCA-job ./opt_b97-3c_parallel
  N   -1.97856606007879      4.48269081335411     -0.37221140277414
  C   -1.59663090753664      3.39345483205908     -0.25371107858189
  C   -1.12839960129368      2.04974058215525     -0.11202317861017
  C   0.24478582874865      1.93780568714854     -0.19628197167073
  C   1.18419111037523      0.91021346407775     -0.05097760660460
  C   2.52469534063335      1.24611515000614     -0.00947501757724
  C   3.30853424772511      0.06284836045301      0.14395674488366
  C   4.70981583042814      0.02994208208423      0.27134652398792
  N   5.86596262140920      0.01156849232722      0.37362502330748
  C   2.47217436348284     -1.02933860782179      0.15579934529830
  C   1.11544594762283     -0.58554862102347      0.02536181633991
  C   0.08059039168976     -1.48216515746103     -0.10208146514154
  C   0.33171986485230     -2.88820595658895     -0.27374049088644
  C   -0.85526029787659     -3.55311276535818     -0.32289823306978
  C   -1.92411731122236     -2.62204860797434     -0.15393669596825
  C   -1.42386407335172     -1.34498720818879     -0.04300455495487
  C   -2.29730448289979     -0.23883473675324      0.18520762918125
  C   -3.64632421820468     -0.63131942730500      0.46292498826316
  N   -4.74157808154383     -0.93818939408073      0.69080441651641
  C   -2.17715431793665      1.13300287413731      0.14064744137914
  H   0.72815050037026      2.89444097967562     -0.35406195552585
  H   2.92198149291242      2.24587574559819     -0.06658465949287
  H   2.79543727742133     -2.04540978392883      0.28294438925555
  H   1.30175369838154     -3.33091110829811     -0.40680803337642
  H   -0.98098357218004     -4.61401368558885     -0.47430864286813
  H   -2.96779305593300     -2.88482897655005     -0.12100216643107
  H   -3.12010339379530      1.63779882664489      0.29989577102122
