30
Coordinates from ORCA-job ./opt_b97-3c_parallel
  N   -4.13508064306196      0.81717837790877     -1.23782607506927
  C   -3.12599880223423      0.48530361532405     -0.75822544716481
  C   -1.91804418693276      0.03811619935710     -0.17802244818013
  C   -1.89019530980239     -1.34111622421544      0.15429422291660
  N   -3.09676574578129     -1.98628685237611      0.13862618816420
  C   -0.82531741076420     -2.14690316533745      0.59348198329744
  C   0.53014258886094     -2.17038374434764      0.29580270310812
  N   1.14094050992137     -3.39372531522794      0.49610736940971
  C   1.39787296648773     -1.16987424702300     -0.22221502669493
  C   2.65803138454760     -1.48581712637308     -0.74547127811461
  C   3.49538408881770     -0.36551098478506     -0.80290996437539
  C   2.80470088526551      0.71194186003601     -0.26943363696991
  N   3.22999716089621      1.96656781476742     -0.10798664005414
  C   1.41851924534064      0.26212244877952      0.05212996781797
  C   0.44300079221498      1.15428924081549      0.41027393979594
  N   0.78697539667159      2.45537344572779      0.74660181199052
  C   -0.33949178757890      3.15594550677251      0.73432304278883
  C   -1.46719429530839      2.39069115661271      0.39116603622390
  C   -1.04121138154114      1.08196581232118      0.22645182000606
  H   -3.91086903651039     -1.49684634814724     -0.19193970805915
  H   -3.10294061278092     -2.98002104693851      0.00051168833350
  H   -1.17519936851043     -3.04641444838780      1.08975337452475
  H   0.58882600484139     -4.11562651871464      0.92481156124430
  H   2.10015290449534     -3.37745909763428      0.79681921099849
  H   2.94921570122565     -2.47398570824505     -1.06834151834257
  H   4.50018994317056     -0.34039909187670     -1.19316522200705
  H   4.12156561492456      2.25624968765684     -0.46628153231065
  H   2.55503024624946      2.62345842531704      0.28899560512896
  H   -0.33280156670246      4.20683980634644      0.99166409667998
  H   -2.48247240452192      2.74052329418710      0.31538431961362
