30
Coordinates from ORCA-job ./opt_b97-3c_parallel
  N   -3.80194742610642     -3.20440664442964     -0.47954706540021
  C   -2.96561505620232     -2.42594565923908     -0.26073410474321
  C   -1.97678675070674     -1.43540961999102     -0.02165626709168
  C   -0.78943082410446     -1.97404391369391      0.48921430356355
  C   0.52715463898099     -1.57945333538846      0.60528541180650
  C   1.25398342488067     -0.46384360180943      0.21110358634331
  C   2.65505275109001     -0.51005449485460      0.11743979634197
  C   3.49563433159269     -1.59660511547504      0.35008716151691
  N   4.24924579577658     -2.46674969080720      0.53436227434176
  C   3.11932753942156      0.76271451297935     -0.34695168307762
  N   4.40279367147765      1.03509787835450     -0.60468238413091
  C   2.02142126251779      1.61908164458887     -0.48325673410413
  C   0.85583606728861      0.93679140280608     -0.12857321865755
  C   -0.37282033902386      1.57839715533012      0.08053824269523
  C   -0.41572735451958      2.97870558285923      0.30378037904850
  C   -1.72661780492490      3.38099227772179      0.47230088931816
  C   -2.56025026788663      2.26649405873742      0.29340033922365
  C   -1.77721337560648      1.12429394787656      0.07120112591278
  C   -2.40335006788427     -0.10082967833345     -0.29123581985822
  N   -3.63890530215877      0.02254228998204     -0.82999413872615
  H   -0.91810089527331     -3.01398570853235      0.76485572950559
  H   1.16289663202917     -2.38099864149793      0.96419730801420
  H   4.68768116532412      1.93303017231426     -0.94729524826344
  H   5.10984918515110      0.33062200199322     -0.48857393089474
  H   2.07242108869469      2.64049468927179     -0.81863693975819
  H   0.45442724041700      3.59960891422736      0.43256089282087
  H   -2.05679550092093      4.37270509047627      0.74073871068129
  H   -3.63215319961069      2.27327597924584      0.41125624158325
  H   -4.21168058262109     -0.78003642734645     -1.02459064670213
  H   -3.93508069799197      0.91003752053324     -1.18631513961015
