30
Coordinates from ORCA-job ./opt_b97-3c_parallel
  N   -4.41692024920974     -0.34262852925712     -0.69131943350721
  C   -3.10678877797617     -0.37983662543521     -0.36868329391502
  C   -2.38362026047467     -1.58214479368448     -0.11599483649951
  C   -1.07668414536524     -1.25124854252820      0.14451721298428
  N   -0.19739095129591     -2.09500210870363      0.69317054728194
  C   1.09945990946003     -2.12875209731045      0.53846240734235
  N   1.79923608471028     -2.83059437321934      1.47393126248811
  N   1.84534555002306     -1.69666956892077     -0.50708438461573
  C   2.08844271688660     -0.45036111599963     -0.79093034158768
  N   3.03784615130010     -0.23498848612126     -1.75984854433025
  C   1.56546133293821      0.73141483841619     -0.15868616694809
  C   2.28450671041039      1.91249031911252     -0.04009902433135
  C   1.44175550375071      2.95695792094351      0.40406333277911
  C   0.15574443059882      2.46252216597485      0.49432942596004
  N   -0.97036128226530      3.16762144607303      0.87657878559182
  C   0.17211028733895      1.04592089135364      0.15291732158518
  C   -0.96772783177355      0.27354892773968      0.02458164329766
  C   -2.27245699554204      0.73626430583231     -0.21756893089695
  H   -4.86359580907452     -1.17832898884305     -1.02252686486689
  H   -4.82331587222773      0.52331059481648     -0.99667931296027
  H   -2.80517005188196     -2.56953773267979     -0.02202493541911
  H   2.71712575764065     -3.14193914137350      1.21244148991504
  H   1.26501418213983     -3.43247017640902      2.07639300001987
  H   2.93607555526759      0.59470068506135     -2.31646360784657
  H   3.33872130610984     -1.05946018069792     -2.25228112614163
  H   3.34123887135754      2.00809956348669     -0.23862993427781
  H   1.75281143167274      3.96157514140098      0.64803119204269
  H   -0.77077856881085      3.95409169838829      1.47436430085240
  H   -1.70617578816390      2.59007520531206      1.25695979525135
  H   -2.53301125804371      1.73770235017188     -0.51880868104776
