29
Coordinates from ORCA-job ./opt_b97-3c_parallel
  N   -5.72933911102447     -1.19856100563107      0.19322764135991
  C   -4.65327031028203     -0.77720345858444      0.07614053892529
  C   -3.35749726981073     -0.25132839435468     -0.07059403549537
  C   -3.03526607651046      0.95646280422606     -0.73441853187376
  C   -1.67218706385695      1.19471233404792     -0.60047165205644
  C   -1.12628040274837      2.39260916548445     -1.11413402065867
  N   -0.09987556669428      3.09506604785878     -0.75004118601416
  C   0.79487855530573      2.76353064334326      0.19926476597225
  N   0.97967925967547      3.67524176931639      1.16513230543678
  N   1.63898664838154      1.74605560842043      0.17926250888608
  C   1.48589480982957      0.47050877934003     -0.01942236239823
  C   2.58976813453636     -0.39748832604506     -0.16494134144841
  C   3.93421254787561     -0.04191516906170     -0.27335027748171
  N   5.07179294388825      0.18634885501625     -0.36534463935674
  C   2.12782121682223     -1.71885225649586      0.00567742327022
  N   2.87279972279626     -2.81379643824417     -0.02348372514333
  C   0.70755273015600     -1.70796592660293      0.21047466459345
  C   0.00280977093130     -2.90721695707148      0.31028150745348
  N   -0.48405514543904     -3.96193149104445      0.39877175342183
  C   0.24276182861652     -0.38725968610418      0.12621395993286
  C   -1.09218792284087      0.02652021842411      0.09224522224790
  C   -2.17707554334002     -0.82450768837446      0.40156129728992
  H   -3.74247915889309      1.61068827643094     -1.21789242970768
  H   -1.72335694321244      2.86310709271872     -1.89186637259110
  H   1.78335746839549      3.59472742665657      1.76280518200728
  H   0.51997961060885      4.56478315536488      1.08720681522430
  H   2.46339523423971     -3.72050553523559      0.12691267977081
  H   3.86021523776435     -2.75963737391255     -0.20617805432618
  H   -2.11498140917293     -1.77530833648222      0.89926219885847
