28
Coordinates from ORCA-job ./opt_b97-3c_parallel
  N   1.72005249526422      4.50610533325155      0.75990392738736
  C   1.44930631786564      3.40234489894330      0.52111087226454
  C   1.11258371886743      2.04751299270793      0.22588906513186
  C   2.25226119990696      1.25564211586066     -0.12262529105416
  C   2.51147442350889     -0.07914977685987     -0.24312997090700
  C   3.85202072593052     -0.35575555001834     -0.64743269358533
  N   4.94041498006852     -0.59241069328407     -0.97458479552042
  C   1.73707758264394     -1.27376673219320      0.02694822957967
  C   2.32405822259358     -2.50617059729445      0.13168463827862
  C   1.27180589079218     -3.46655923644317      0.34761999333210
  N   0.08984038255849     -2.92330921550818      0.35543937916447
  C   0.29337952562395     -1.53868723664716      0.16627923443122
  C   -0.82826008508194     -0.75979702572525      0.08184532393324
  C   -2.12663715925259     -1.40947684130478      0.05310077273374
  C   -3.09119377790158     -0.46329171767514     -0.08843222563595
  C   -4.47845107097122     -0.63918997134770     -0.20821986670953
  N   -5.63409230298972     -0.69703540791782     -0.31202960852721
  C   -2.44925814600765      0.84756104476118     -0.11464640280246
  N   -3.15883502783644      1.97631790526448     -0.22061893850903
  C   -1.06101538289683      0.68180095127321      0.00365794617100
  C   -0.23999413051232      1.79782558875784      0.22585107995299
  H   3.12054550486160      1.87255748600910     -0.31488045596671
  H   3.37682520765595     -2.72190130016262      0.05374168099822
  H   1.40074661066074     -4.53122574234614      0.48650970211649
  H   -2.25980683265809     -2.47390981863681      0.10092215879575
  H   -2.72173712919090      2.86348744928142     -0.38845520531249
  H   -4.15957873117011      1.93990566198874     -0.30533717820510
  H   -0.80734185263320      2.69536700646532      0.44837775936414
