22
Coordinates from ORCA-job ./opt_b97-3c_parallel
  N   3.87361183009951     -0.88006659661273      0.63946129241836
  C   2.96860638152287     -0.18294454018834      0.41592523635957
  C   1.90539669790115      0.68263554425620      0.14919389648074
  C   2.10888839108117      2.02355743960633     -0.37238134595391
  C   0.92423461800166      2.61731628124009     -0.65444219232552
  C   -0.11513103218483      1.73936788360317     -0.18643831839218
  N   -1.29463405075051      2.16986582996939      0.08070334813299
  C   -2.35197393121934      1.59856276360471      0.67228335506349
  N   -3.03046270872629      0.56417802043343      0.31084410640649
  C   -2.64683719342042     -0.53274908070852     -0.33394882642289
  C   -1.45202228513506     -1.20964809725537     -0.23203638520506
  C   -1.40508804275383     -2.61915329569684     -0.40333157294509
  N   -0.23771815898949     -3.13518519481615     -0.02988420493328
  C   0.55523245394956     -2.08769141147932      0.31945226821466
  C   -0.09537396079620     -0.84801274596581      0.23317098216806
  C   0.54438513174883      0.40533629001351      0.18265434757713
  H   3.08820193034880      2.45900784104207     -0.49836603622554
  H   0.75222943260489      3.63159546307335     -0.96971668618563
  H   -2.77757628209378      2.19767214394085      1.47469359005305
  H   -3.45124274778203     -1.04515975868112     -0.85346070050057
  H   -2.22932127654330     -3.24722909784142     -0.70962061539751
  H   1.58648025673661     -2.26090667763734      0.57499599201249
