32
Coordinates from ORCA-job ./opt_b97-3c_parallel
  N   -4.37061189542274      2.71360375409207      1.00259718639936
  C   -3.42052758155976      2.09537545650995      0.73944207395492
  C   -2.34129007792887      1.27136170806294      0.39814382656150
  C   -0.99387993862105      1.53782078625427      0.48191844329056
  C   -0.26449254654077      0.35846330365989      0.13026652641802
  C   1.12190653013212      0.32588038958202      0.09207480332769
  C   1.98068493300650      1.43929962256917     -0.07291542736365
  C   1.67728778007749      2.76239744908430     -0.38064521143237
  N   1.51912318208248      3.89039509270672     -0.63440243287929
  C   3.32150002119759      0.96084952597730     -0.07193033312977
  N   4.39069556728969      1.73748177769414     -0.26288664822616
  C   3.33270526810973     -0.43466589578135      0.15782477564771
  C   2.03025011318929     -0.87073488328522      0.27911041795963
  N   1.70753858314924     -2.07330179162174      0.76466374313715
  C   0.65376755618857     -2.79249585312835      0.49585764354123
  N   0.34082035476274     -3.77535737620890      1.37739248703145
  N   -0.09941011231233     -2.79713501645817     -0.64016321306101
  C   -0.98653410291432     -1.89956948398283     -0.92514595192353
  N   -1.82562677139942     -2.18504892393750     -1.97660910028483
  C   -1.24523196672452     -0.65890378319981     -0.22779019480010
  C   -2.50670841696256     -0.08054255958976     -0.09934952988016
  N   -3.72467280518422     -0.58749057802318     -0.42736181918573
  H   -0.56134767335564      2.45425284290191      0.84110333039159
  H   5.30608864845171      1.34274654810789     -0.37015292444960
  H   4.27678111162471      2.71855293515535     -0.45374648383842
  H   4.20612381954354     -1.04554998535978      0.31347671038719
  H   1.02237817463167     -3.99019871668326      2.08426399136450
  H   -0.24137891369769     -4.52519229551354      1.05172840921012
  H   -1.55363121410236     -2.98626849469304     -2.52274807722076
  H   -2.16817512602212     -1.40284003188086     -2.50892475906877
  H   -3.80261969304586     -1.58044152079126     -0.56078818907077
  H   -4.53343769214275     -0.13464429691908     -0.03615802340782
