29
Coordinates from ORCA-job ./opt_b97-3c_parallel
  N   4.65321254765537      0.02597181315621      1.18050896211074
  C   3.54919484152608      0.09398939673225      0.82074483415244
  C   2.20247610907612      0.15738457249504      0.36962659489243
  C   1.72781292786179      1.45540978442462      0.29283585850285
  C   0.54617203158065      2.10320034533217     -0.05312863722770
  C   0.55422463613164      3.49982140195334     -0.19836729947541
  C   -0.74808568924738      3.95774688614607     -0.45955299595916
  C   -1.60585157470935      2.87632616768058     -0.42233890186814
  C   -0.85634104406975      1.68991893927023     -0.18367734521826
  C   -1.48047385380960      0.47792115899459      0.04915754568969
  N   -2.82406549284265      0.44611934859384      0.21462963180921
  C   -3.16230122911416     -0.84409136988415      0.32036556805405
  N   -4.43075747692739     -1.20483260483021      0.52560557266805
  C   -2.04727988537825     -1.72409969708856      0.20574863081883
  C   -0.93465387898471     -0.93450119453522      0.04552451891767
  C   0.33577697807878     -1.50317294201751     -0.29104996902715
  C   0.21344571611223     -2.82895728679422     -0.77656606670952
  N   0.15543692920545     -3.92013417735532     -1.17777266089757
  C   1.67508755721605     -1.10707334411290     -0.09299090481790
  N   2.62607104711541     -2.03600138836796     -0.34944314416261
  H   2.50271365305984      2.16947802410759      0.54932299233884
  H   1.43885760904850      4.11319562037190     -0.11637522275704
  H   -1.02873044868571      4.98350686113250     -0.64115095046095
  H   -2.67490189539077      2.88862256414368     -0.54265624653652
  H   -5.13456050031975     -0.49350401506872      0.61339067311604
  H   -4.69639345259338     -2.16560382353669      0.62793161713194
  H   -2.07761489151337     -2.80009148975486      0.22760813606944
  H   2.38073484330876     -2.98567519415041     -0.56614206382270
  H   3.59990441300953     -1.82122314773769     -0.23556058193166
