28
Coordinates from ORCA-job ./opt_b97-3c_parallel
  N   -2.71808092493193     -2.44992526204756     -0.74839780601339
  C   -2.19999892683174     -1.45882798769083     -0.41550609728279
  C   -1.67975144456006     -0.23468567189562     -0.00617398163188
  C   -2.51049719531508      0.93549899219560      0.14803316290833
  N   -3.85181708217002      0.92424276341186      0.11335781457222
  N   -1.80765856808416      2.03714007162291      0.33346513954620
  C   -0.48004499021530      1.68319018587859      0.26575288252926
  C   0.42733249238312      2.70986166122530      0.38722004846113
  C   1.80283649748250      2.87236956242795      0.16436182897280
  C   2.80751027664648      2.08330598239200     -0.33173675623625
  C   2.91088182857910      0.71724888030705     -0.65530936155669
  C   2.14018658977012     -0.39009241833235     -0.42451400724762
  C   2.74664922150764     -1.67428247352157     -0.57426786456535
  C   1.94950203312195     -2.62460579184472     -0.00006915821571
  C   0.74956988843632     -2.00736187608287      0.46215141822614
  N   -0.15764049053613     -2.67831946601152      1.23004186277021
  C   0.78313693490651     -0.63346947019686      0.14439256551181
  C   -0.34807841502287      0.20153354548456      0.10562519888424
  H   -4.33524337819138      0.10937029337545     -0.22010427870802
  H   -4.32763629730446      1.80743242013363      0.05981188170891
  H   -0.07914248287571      3.63606974313826      0.63066175579477
  H   2.12248798463261      3.89225606513685      0.34917249376619
  H   3.73618323212637      2.61903518606241     -0.49186618286008
  H   3.87546996148296      0.46732808732038     -1.08531725684103
  H   3.73719469167755     -1.82663645278962     -0.97263835658681
  H   2.19090757452995     -3.66808607988177      0.13760370280084
  H   -0.30165017517091     -3.64971028032292      1.01013277887214
  H   -1.02087038117350     -2.20916099759444      1.43552883882043
