34
Coordinates from ORCA-job ./opt_b97-3c_parallel
  N   2.93488823802678      2.18834811672700     -1.96939526593747
  C   2.15559509155793      1.78317550553033     -1.20468323555197
  C   1.15090886639993      1.38091373850998     -0.29656838542033
  C   0.29008864413776      2.37761484663792      0.13279561201767
  N   0.56240995595537      3.67163927988294     -0.18427066946380
  C   -0.84978242189371      2.23835935622063      1.01587546299028
  C   -1.92693771295202      1.42720956256122      0.88796149789187
  N   -3.08695564840270      1.74498929358070      1.61640629306727
  C   -2.07420014815056      0.25731985223005      0.05408783761879
  C   -3.31227211628560     -0.22411024808716     -0.45978946441240
  N   -4.45355677856583      0.46297416650751     -0.59130102667317
  N   -3.27516624863158     -1.52645139688391     -0.87182369819712
  C   -2.04589243500737     -1.93748966344930     -0.59008109582365
  N   -1.60017757670385     -3.16191211008971     -0.82088304298966
  C   -1.19431802726698     -0.84698401837419     -0.04706661915947
  C   0.15499460260652     -1.00052675249141      0.19475690180400
  N   0.70724745643347     -2.26878644460064      0.35692647169830
  C   2.01382608479142     -2.10241531639400      0.43539975110069
  N   2.89401848220740     -3.11474425949497      0.59127797329733
  C   2.38752189734166     -0.71176988621514      0.29475166285712
  C   3.70682169162817     -0.25982151265515      0.36805514486122
  N   4.83217024192243      0.01550431581798      0.48201342528029
  C   1.20222824593607      0.00302050692336      0.14301061361436
  H   1.31421515198720      3.87757281036172     -0.82255902623835
  H   -0.18741963670091      4.33740361731198     -0.14746570648202
  H   -0.91598922181273      3.02720468551376      1.75921968602084
  H   -2.96205190879578      2.50291283977420      2.26989925148847
  H   -3.50456705272371      0.94527146436003      2.07063206995830
  H   -4.54051479398369      1.35133288548336     -0.12736152341069
  H   -5.28246870141068     -0.04363345658212     -0.84715621281551
  H   -2.21217215103926     -3.85191796439093     -1.21931321650044
  H   -0.66317747629252     -3.37822299768032     -0.48596815654689
  H   2.53302851904407     -3.99873487617909      0.90273777811140
  H   3.83287399554804     -2.89031750786962      0.87066452634550
