35
Coordinates from ORCA-job ./opt_b97-3c_parallel
  N   -5.68482414169854     -0.65920080731462      1.10488714071883
  C   -4.60547906206928     -0.41298822026021      0.74162642625384
  C   -3.32222779930850     -0.10507617994626      0.29456015889317
  C   -2.94763189469696      1.07509075273223     -0.41495379751688
  N   -3.83039906612990      1.95937801106696     -0.89692081292114
  C   -1.54298440893864      1.13314643131351     -0.55203762212555
  C   -0.91036962931567      1.99323052182323     -1.49699279123982
  N   0.26657838786622      2.50668006604289     -1.47169298233092
  C   1.06055936258497      2.56421256770427     -0.35247535912052
  N   1.20892718612907      3.82363821491730      0.11189604517501
  C   1.75460519391738      1.50497194136100      0.21823832159487
  C   2.74262265773362      1.84013326665102      1.16669453613356
  N   3.51090806683319      2.19896541186232      1.96457254615942
  C   1.54189313385071      0.11948416793038     -0.08615316636397
  C   2.56631438840329     -0.82323158609727     -0.07719884034037
  C   3.94849848885326     -0.61337844200150     -0.04188219087671
  N   5.11000233306095     -0.54857595554548     -0.05317672037014
  C   1.99996685674665     -2.14045875075138     -0.18971267559656
  N   2.71836508658274     -3.25963100996847     -0.30917410481513
  C   0.60426607534126     -2.02029112676665     -0.20479835475047
  C   -0.21248685365477     -3.09364334452623     -0.55594619417373
  N   -0.85276017947077     -4.03445126992566     -0.81224653777581
  C   0.26961315789437     -0.61367130955009     -0.13445892727350
  C   -1.00708168624091     -0.09183634402781     -0.02001333995801
  C   -2.15351857169997     -0.82473111075040      0.55144407345836
  N   -2.07375582931150     -1.88944842789007      1.34493401046267
  H   -3.53518186790446      2.86855744854293     -1.19976222416491
  H   -4.81238216904960      1.83348514189916     -0.72404719166042
  H   -1.48591388622378      2.22505244532403     -2.39648664643600
  H   1.90841476688341      4.01096087404044      0.81167893715438
  H   0.97492022634733      4.57362581519378     -0.51338232342584
  H   3.71681308955544     -3.21274457409074     -0.41324560083554
  H   2.26648597494782     -4.13844977291613     -0.49123459929519
  H   -2.91441491343990     -2.35057036288014      1.64827659665897
  H   -1.21890059787991     -2.40974715340025      1.42122386720311
