28
Coordinates from ORCA-job ./opt_b97-3c_parallel
  N   4.93565618451222      2.08896476732667     -0.53267756955128
  C   3.89893353308160      1.58407651983387     -0.39262771775522
  C   2.62181047668828      0.98957620455766     -0.22176870313886
  C   2.45042972385976     -0.26086885588570     -0.78055867129847
  N   1.58056859378975     -1.19322792768894     -0.42948671100947
  C   0.36548106155094     -1.32668847004419     -0.05668308272982
  C   -0.14995612617546     -2.61231760498650      0.38121020367771
  C   0.63926285904990     -3.74014754376059      0.63530327644370
  N   1.30199432284483     -4.67050899255486      0.84827540541402
  C   -1.51601769549170     -2.52573008018399      0.39381581266492
  C   -1.94431329056910     -1.20458499638688      0.04084329222251
  C   -3.27640080095268     -0.81274938457977      0.19157123564932
  N   -4.39019919428727     -0.49576913489063      0.31880817684429
  C   -0.81720280543434     -0.39040099726666     -0.18497104069876
  C   -0.73527871761691      0.99706094154559     -0.31301163202529
  C   -1.83169262185365      1.86311074358520     -0.56419164219912
  N   -2.89927712710796      1.62529177096287     -1.34610533459701
  C   -1.58112310674031      3.12405178998284      0.05973189878805
  C   -0.35057233986940      3.09175807358403      0.64865011424317
  C   0.30360434314627      1.85398529188940      0.33688900684176
  C   1.65973965215366      1.80048825289318      0.45582889341341
  H   3.22246834512323     -0.61508130774101     -1.45576793257232
  H   -2.19225712324688     -3.32366309559566      0.65484582035365
  H   -3.73858963927973      2.15667056815076     -1.18820758189952
  H   -3.07235003687056      0.69052926125990     -1.66940304173692
  H   -2.24628040761877      3.97271732854862      0.01506101796671
  H   0.13631125353097      3.91623630663099      1.14489957443901
  H   2.09362553617734      2.64767146232234      0.97232827424691
