30
Coordinates from ORCA-job ./opt_b97-3c_parallel
  N   1.50677583533634     -4.11096512192649     -0.67135561966961
  C   0.95566445058924     -3.09733383058908     -0.51003360329684
  C   0.15811715505106     -1.96890827110824     -0.31202906347200
  C   -1.21136801609508     -2.11914952431757      0.00002193421018
  N   -1.87681736012632     -3.26502131693818      0.06923346373346
  C   -1.76481574150248     -0.83534268906073      0.27920480385129
  C   -3.09879739838011     -0.69300665142960      0.66789825381563
  N   -4.20738939252931     -0.71429055199473      1.02244400858303
  C   -0.76007820471522      0.13195192267150      0.13317157577400
  C   -1.05869337624005      1.49648533953631     -0.03108378668854
  C   -2.37270083041129      1.82838874591099     -0.43320652743474
  N   -3.40294679887887      2.19143437038467     -0.83479989199577
  C   -0.19475143028429      2.63215883743594      0.08706443592244
  N   -0.53880437668543      3.76174863563485     -0.56047815728566
  N   0.84578656732021      2.76467596020621      0.89986709887179
  C   1.92242288218233      2.07762392696736      1.11381111849949
  C   2.45795012422012      0.97886923685368      0.42799452533718
  C   3.83421973638305      0.76973931697707      0.36814649195515
  C   4.09503782001147     -0.33877508326503     -0.46203035619020
  C   2.89117980383626     -0.89730371562585     -0.84585305864339
  C   1.82058010562693     -0.12871893150661     -0.30719484490900
  C   0.51781186057768     -0.60161410372518     -0.17930135950276
  H   -2.84305657799489     -3.28076314167897      0.34791655333984
  H   -1.41740568972341     -4.13930602025902     -0.12079676466063
  H   -0.08981362186772      4.61581631810449     -0.28143149223513
  H   -1.41197170513059      3.82527772712669     -1.05556735452647
  H   2.56305658894358      2.50112082761271      1.88477368527780
  H   4.57255909563967      1.39661838521126      0.84423126162835
  H   5.07287484769008     -0.70240459802122     -0.73602314550871
  H   2.77953629655709     -1.78270754578063     -1.44575279138124
