27
Coordinates from ORCA-job ./opt_b97-3c_parallel
  N   2.15226778701424      3.04676275500582      1.17023649640686
  C   1.38538094677910      2.22040418421265      0.39773710221738
  C   2.16242584856995      1.15439815778416     -0.22597973179337
  C   1.91923800793499     -0.16788930042380     -0.31529083000590
  N   3.00192979989625     -0.98997404465473     -0.65107102220576
  C   2.59028195168367     -2.21029359017879     -0.38700151408052
  C   1.24893684574076     -2.29854179226441      0.08015868468411
  C   0.73053293846152     -1.01221042204132      0.06784826614098
  C   -0.61354472725205     -0.61040061274000      0.19730875241440
  C   -1.69520210955595     -1.49119840651917      0.38553488150152
  N   -1.66638171500828     -2.77049956811426      0.83837322393431
  N   -2.90032234660026     -0.98265934798633     -0.01786126424626
  C   -2.65278554440851      0.23380399122299     -0.48007131442960
  N   -3.65193907221468      0.98180852644562     -1.00686447454206
  C   -1.25781100003519      0.61264202793916     -0.31082067183118
  C   -0.87217552731122      1.91656655367291     -0.34487220443407
  N   0.14907004587944      2.55491056462056      0.25355080093290
  H   3.01745077932944      2.69477919636250      1.53876722981599
  H   1.65624206437220      3.71311362868271      1.73804124139614
  H   3.17684894588807      1.43277738143335     -0.48782182394782
  H   3.25289642796063     -3.05415389814096     -0.54062865959232
  H   0.71357404306947     -3.22083169119168      0.21954808708428
  H   -0.93553396724209     -3.01119062070314      1.48508091304590
  H   -2.57059969043540     -3.15219146643006      1.06023421690030
  H   -4.58460713894654      0.68195531965507     -0.78024437342381
  H   -3.52810305484603      1.97275648727814     -1.09508457031992
  H   -1.58022338072311      2.62041458127242     -0.77770907832200
