34
Coordinates from ORCA-job ./opt_b97-3c_parallel
  N   -4.78486310390007     -1.87981572854183      0.86535749274923
  C   -3.76956410076428     -1.40011951261252      0.54808073534558
  C   -2.56221938806143     -0.81701399035657      0.17546584863331
  C   -2.33489930155289      0.59100095570215     -0.01090992372474
  N   -3.36107690635326      1.48418017360610     -0.01637011719116
  C   -0.97422754444775      0.81724995670753     -0.24249203011945
  C   -0.45653061504396      2.07090127663050     -0.74487662779711
  N   -1.35097694299144      2.76388580485927     -1.55830309797728
  C   0.72366506199674      2.68361756384295     -0.45448242570937
  C   1.70826646932212      2.38600461107117      0.54635134457506
  N   2.28190131094872      3.52219831368691      1.07748845203989
  C   2.26063474519614      1.18136168979068      0.91661366118437
  C   2.17656022037617     -0.08659479563334      0.31444342530848
  N   3.22532203236832     -0.90808225388647      0.42426857065060
  C   2.88047485358402     -2.07468846421400     -0.20157372972632
  N   3.81637372922953     -3.04701664322824     -0.31171329611432
  C   1.55678981508210     -2.08887507307361     -0.63494566562207
  C   1.03056703337416     -0.81629930002875     -0.31336313551612
  C   -0.31233455693260     -0.47267029876426     -0.24214286387295
  C   -1.34545961872803     -1.47223326871139      0.00094085295843
  N   -1.14916052145684     -2.80615856901552      0.14048711982607
  H   -3.13117356790999      2.45986094313610      0.04857520543544
  H   -4.21906668397274      1.20233438801612      0.42596607184882
  H   -0.96833232960278      3.55822781938415     -2.04455114350758
  H   -1.92425496776439      2.18438446456444     -2.14992845680921
  H   0.90633868567103      3.62710441717084     -0.96067593527442
  H   2.92960130397642      3.40051605295749      1.83665910429007
  H   1.69560676151675      4.33424316674305      1.15962053850555
  H   3.07339937632113      1.24024529919774      1.63325081111228
  H   3.68299919888694     -3.77068240071808     -0.99433069614370
  H   4.76674452161745     -2.76180957688421     -0.14762223405515
  H   1.09240915600702     -2.83940913555133     -1.25304367712680
  H   -1.84559403441546     -3.30355633960646      0.67294421957280
  H   -0.19381446047743     -3.08920170484002      0.31418351535165
