28
Coordinates from ORCA-job ./opt_b97-3c_parallel
  N   4.37685247120774     -0.02381389667077      1.16844981056331
  C   3.29724396396227      0.00130550163279      0.72551658479329
  C   1.99928459200647     -0.00032120623017      0.19002696210715
  C   1.69368234188473      1.12549159247045     -0.69398741734821
  N   2.66829328265824      1.45157511776168     -1.56872815688602
  N   0.66436895020083      1.91992793372300     -0.69015998614393
  C   -0.50290389952616      1.87774201785846     -0.07314617443144
  N   -1.15826919142710      3.00384891328236      0.22687806509179
  C   -2.39650305020630      2.58498544104207      0.58429720794440
  N   -2.65165436013720      1.28311017660284      0.51368822152621
  C   -1.44426858657775      0.72977436953191      0.14509861233268
  C   -1.26724049239412     -0.61123344530982     -0.04008935149251
  C   -2.42684268261966     -1.53537012416146     -0.18976240079919
  N   -3.69109125911674     -1.11968107985601     -0.10990146130456
  C   -1.93639402362375     -2.79953786883441     -0.47984649854477
  C   -0.53815835192437     -2.73488777898425     -0.42541432107525
  C   -0.07935132609741     -1.43543753371662     -0.16140973086676
  C   1.25624631740013     -1.18370788161049      0.28742641971464
  N   1.90052757808668     -2.27450750877402      0.79411217400587
  H   2.62408442979039      2.34878197417600     -2.02010784176659
  H   3.53444071620165      0.94549483317708     -1.58551854958713
  H   -3.14663344580544      3.28950043929678      0.91579471256013
  H   -3.84510256026636     -0.15762001021111      0.19223661847913
  H   -4.45380670677619     -1.75373490155549     -0.26183742863866
  H   -2.52474541272272     -3.67539941962576     -0.69979422477915
  H   0.11089384598987     -3.58484746424196     -0.57544175994060
  H   1.34268983318570     -2.97905775425022      1.24092779213621
  H   2.83258368694816     -2.16170197572176      1.15689174754939
