31
Coordinates from ORCA-job ./opt_b97-3c_parallel
  N   4.95684787325245      0.49360691236441      1.58361342977384
  C   3.90304892521158      0.53805701622249      1.09504621077804
  C   2.62326898496174      0.56831843739467      0.47929966696507
  C   2.04876965566393      1.82110432632878      0.42425815265593
  C   0.86432393420737      2.34609101888095     -0.08668146593828
  C   0.72980974708413      3.72305616350039     -0.29525406477620
  N   -0.49802393896852      4.07388514929490     -0.75542258149600
  C   -1.22384861030960      2.96046017870391     -0.75365711322091
  C   -0.46889506350204      1.81165023398011     -0.35831046720546
  C   -1.01285509856474      0.56934089525887     -0.09338819262426
  C   -2.39311011812780      0.32697087794944      0.12704870829110
  C   -3.44745674333603      1.22763568894935      0.29323483370104
  N   -4.39699156952957      1.88273109345447      0.44906539854782
  C   -2.58448943144917     -1.05536109780538      0.30947931563342
  N   -3.71979868639090     -1.66412839345176      0.61054020803806
  C   -1.31720023736354     -1.71916371020884      0.16231500250885
  C   -1.20000628235631     -3.09902932849250      0.35149374958363
  N   -1.22089910435744     -4.24190120720005      0.56800402140533
  C   -0.33070583237752     -0.76667927531051     -0.08013346614279
  C   0.96898737056775     -1.14893287836844     -0.52025065399242
  C   0.99341883262778     -2.35353701655711     -1.26526802196010
  N   1.09350157358244     -3.30252408778532     -1.93095348404799
  C   2.25965896973819     -0.65226268886199     -0.20851281855237
  N   3.30249452646129     -1.42782149964873     -0.54802095389991
  H   2.70062823777863      2.58977918888752      0.82543090887194
  H   1.49682949289618      4.46759091334008     -0.13837508552199
  H   -2.25268792932972      2.97059670642130     -1.07377361316595
  H   -4.57092055299633     -1.13923048234907      0.72612755501719
  H   -3.75011047375983     -2.66049714580257      0.74952639303573
  H   4.24431098665565     -1.14413549166573     -0.34127584275814
  H   3.16666903892621     -2.34352782022133     -0.94257792870294
