29
Coordinates from ORCA-job ./opt_b97-3c_parallel
  N   -2.93279079472670     -2.84332896447618     -0.91062944373724
  C   -2.50442716163443     -1.81224446232489     -0.57411003097728
  C   -2.13258537940910     -0.53328174887997     -0.16735676289271
  C   -3.10422754395004      0.46411341395804      0.17107731895198
  N   -4.42502810475839      0.27705827075238      0.17293849960228
  N   -2.55591658647569      1.63928106077420      0.48870072110069
  C   -1.21301538223990      1.49440213655878      0.33027992053768
  C   -0.43988522494413      2.62911388008148      0.45912119520060
  C   0.85670406004678      2.97093056583366      0.06951784610049
  C   1.97530090778490      2.33688860542941     -0.40459542725831
  C   2.41634934880635      0.99047921023881     -0.45063609104012
  N   3.66494465641691      0.85288283866375     -0.95660357381084
  C   1.77346624934764     -0.19115359382592     -0.01009865081393
  C   2.46965907005809     -1.40141019677361      0.20325612167806
  N   3.85180606873140     -1.60902695533251      0.25122234710602
  N   1.64941752658441     -2.46141777550558      0.35486021827563
  C   0.40621212241650     -1.99520615665138      0.22104839309551
  C   0.35336049052343     -0.59452948728157      0.02939609504947
  C   -0.87438480749794      0.07627294092221     -0.01392322907525
  H   -4.82397857561279     -0.59234794124754     -0.13195872455003
  H   -5.02992635679701      1.05295689515028      0.37147064234950
  H   -1.03798844985549      3.47442279331363      0.77508023633394
  H   0.99598254306565      4.04734329398226      0.09361267499743
  H   2.73647200323358      3.03210676714957     -0.74340960761977
  H   4.21785628909275      1.65922266899161     -1.17720219535243
  H   4.09474161286390     -0.05941182196615     -1.01729180788759
  H   4.02980222741633     -2.58489230282075      0.44500030388183
  H   4.31841298618579     -1.03829160972072      0.94344870862423
  H   -0.43483420987424     -2.65460061888550      0.34852085363116
