27
Coordinates from ORCA-job ./opt_b97-3c_parallel
  N   -5.85184885766785      0.71735346657503      0.39522783616452
  C   -4.76155047750984      0.34026262889951      0.24400190561163
  C   -3.42701948621905     -0.04222086617422      0.07883120605300
  C   -2.92039180908736     -1.29989290227141     -0.33053719595439
  C   -1.53697369718095     -1.30251176305701     -0.34428175630057
  C   -0.79150162951053     -2.37021498353821     -0.91495953003886
  N   0.40206732466250     -2.75865938363856     -0.66566799592108
  C   1.41393558965266     -2.38532686622132      0.09979014597509
  C   2.03949706755936     -1.15960649306750      0.20722216626936
  C   3.28628350196826     -1.19145250874437      0.88445983750976
  N   4.28290328401910     -1.25360112483319      1.47757179885660
  C   1.52850057288386      0.12627345467218     -0.17053992355818
  C   2.31698583136722      1.25822161604879     -0.32035255720722
  C   3.70122792713088      1.35541375379379     -0.51314250267904
  N   4.83394967984799      1.50977142983808     -0.72040109837958
  C   1.43180011044986      2.39399614402556     -0.29660319161669
  N   0.18581501502106      2.05172673489368     -0.13465850203039
  C   0.14004400140970      0.64812550694073     -0.09630364660175
  C   -1.08960319448508      0.04731109616366     -0.01819764085474
  C   -2.33955073203124      0.82383460065260      0.23249631666485
  N   -2.38572407746193      2.09897452289008      0.58801750904223
  H   -3.53985305013108     -2.13417232994072     -0.62089935349136
  H   -1.32345560896598     -2.96658362118899     -1.65481625249397
  H   1.88304041809899     -3.20982539114222      0.62837604273048
  H   1.73296027029455      3.42458995540954     -0.41570825280556
  H   -1.52976240623007      2.63493818242854      0.46221896585446
  H   -3.27737415068553      2.55492017708703      0.69402055830299
