26
Coordinates from ORCA-job ./opt_b97-3c_parallel
  N   3.30450729814310     -1.26006624241571     -0.48514229565030
  C   1.98818634211023     -1.05879879894301     -0.13212654993846
  C   1.40155035399224     -2.24235220676551      0.42668019373114
  C   0.13425411426253     -2.72870826356966      0.45682325770893
  N   -1.02889076670751     -2.35952365114085     -0.10186499793390
  C   -1.58073778815776     -1.19072775402883     -0.20455274767326
  C   -2.94123662769931     -1.01600818880800     -0.56973716703563
  C   -3.28547040737181      0.24749847576092     -0.15804276088706
  N   -2.24539759132432      0.98220007518408      0.33310917850759
  C   -1.13647970616815      0.21043345536406      0.22790192057999
  C   0.13098030126945      0.76969369913768      0.21247867413364
  C   0.29342054560509      2.20677122577218      0.23976898027284
  N   -0.67759798025507      3.08110971258676      0.55719066918895
  C   1.60821304868251      2.52307742704335     -0.14094607022274
  C   2.28585317024325      1.35173657006089     -0.41289296892628
  C   1.46386644406633      0.22503808440667     -0.17345414909075
  H   3.55214109668865     -2.20269210033671     -0.72785819328598
  H   3.74636311499857     -0.57314380080698     -1.06744526931624
  H   2.13801559055024     -2.92233168849777      0.84172913246369
  H   0.04973196010550     -3.70108716125157      0.93938656429172
  H   -3.59421308983542     -1.81053130976403     -0.88630574588445
  H   -4.27521081628021      0.68357175475646     -0.17033116019542
  H   -1.61591879828410      2.66512246525893      0.56663245949142
  H   -0.56418478595966      4.03920412095504      0.27417299952708
  H   2.01574765618797      3.52074346221687     -0.20200559382295
  H   3.33231338563704      1.32924942652440     -0.67336566383357
