29
Coordinates from ORCA-job ./opt_b97-3c_parallel
  N   4.76053165008622      0.36027496219522     -1.04407679878045
  C   3.80222862053049     -0.19692587713606     -0.69006616362084
  C   2.67622275839708     -0.91005841861893     -0.26614145285822
  C   2.64394566969823     -2.30788377859132     -0.05839095607383
  N   1.46157280281630     -2.76027210335770      0.33710619297746
  C   0.61192594906170     -1.68242724495352      0.33535696691239
  C   -0.68131745315116     -1.93538027203828      0.71464963440243
  C   -1.92739670182465     -1.31603517148628      0.51108533542969
  N   -2.98177863225685     -2.07144711041198      0.92178453857435
  C   -2.25585516109876     -0.11249138337045     -0.18052753281132
  C   -3.55560932021291     -0.11909763357808     -0.73503372136117
  N   -4.62786930880862     -0.10930731355211     -1.19032102203413
  C   -1.58452489830074      1.13815454906904     -0.26315383500689
  N   -2.29400082337217      2.14496485079203     -0.82651066164058
  C   -0.31848160226175      1.53752940111655      0.25538742440817
  C   -0.08514010598692      2.87150924303277      0.59696361147709
  C   1.29507982840866      3.06910037997627      0.81602359558363
  C   1.95439789754241      1.89019441436449      0.55444119400311
  C   1.00077816368265      0.87978026740529      0.23728316978674
  C   1.37079687892439     -0.44014003333787      0.00338342793570
  H   3.47378331119706     -2.98208749771705     -0.21629138539765
  H   -0.76331642770089     -2.94074503119252      1.11282859344971
  H   -3.92417712351685     -1.79163208588156      0.71294643258011
  H   -2.84499969059129     -3.04624273139845      1.11802588442055
  H   -1.80720673761225      2.96515293864324     -1.13374868074016
  H   -3.23245346114171      2.00935543393070     -1.16002735958380
  H   -0.84803210335162      3.62221884070064      0.73054237071254
  H   1.74834980726055      3.98522581421058      1.16075977000022
  H   3.01113010798342      1.72194976588576      0.65806250645520
