28
Coordinates from ORCA-job ./opt_b97-3c_parallel
  N   1.35128831466669      3.58488966316519      0.42824521676078
  C   0.96949783573232      2.27602075520137      0.19647533566287
  C   1.93347926049162      1.32049961580626      0.47469979500119
  C   2.06286630395624     -0.02540232370838      0.13971845996510
  N   3.28009118278770     -0.59268706073479      0.21767624912404
  C   3.06362188300267     -1.89580008746301     -0.10200446533980
  N   1.81639814209948     -2.27124939314316     -0.32503169256967
  C   1.08856893245464     -1.11038261650674     -0.17588270034669
  C   -0.28287096019010     -1.15891131802599     -0.07313452400168
  C   -0.93101995027938     -2.43341916597240      0.13073204764285
  C   -2.24311213875727     -2.22015973787641      0.39912448147978
  C   -2.51199837195596     -0.80907909643624      0.30166026141315
  N   -3.78148244783716     -0.31011972566614      0.45027441969391
  C   -1.32548363254566     -0.13082542437158     -0.00427039188935
  C   -1.28763070692498      1.22419821040264     -0.47699171096339
  N   -2.49908834132329      1.65792855558120     -1.01497646647636
  C   -0.30082550808778      2.18012460302433     -0.43094025636947
  H   0.62559524199091      4.24385685753806      0.64842769213039
  H   2.20301497238063      3.72814419257073      0.94158921884163
  H   2.85182972446018      1.70831852207677      0.90257759268279
  H   3.88928367996675     -2.59056039933007     -0.17766865619463
  H   -0.39379035672900     -3.36432930076950      0.15052181352123
  H   -2.98070874502368     -2.96476025790516      0.66102489298398
  H   -4.41059008522299     -0.87664525309019      0.99266243568386
  H   -3.86026515981249      0.67716566458928      0.62719427373054
  H   -3.00688796382095      0.96341216048904     -1.53836576455411
  H   -2.46596443494061      2.54574282989279     -1.48721780633119
  H   -0.58814217143864      3.12048305115775     -0.89196783268217
