29
Coordinates from ORCA-job ./opt_b97-3c_parallel
  N   -5.45123104249915      0.23484241716979     -0.03263510553560
  C   -4.30274674922197      0.04757943323838     -0.04322272590702
  C   -2.94826565449207     -0.28482727381703     -0.07597533985905
  C   -2.43639711346189     -1.63089528992621     -0.25460682104616
  N   -3.20935968677110     -2.68939366908717     -0.52464420368829
  N   -1.12332803402904     -1.69075304693488     -0.13321775055751
  C   -0.67622800579191     -0.38962869336718      0.06406334520057
  C   0.66442326500728     -0.08862413143182      0.09073338254033
  C   1.69054399997986     -1.14701018313567      0.15069769219621
  N   1.42197605581135     -2.43720757389177      0.30336519193132
  C   2.95215861012493     -0.55427386050407      0.08186996420809
  C   4.18106182477392     -1.20554770582281      0.15526212126548
  N   5.21556117449246     -1.73980126159528      0.21129815004562
  C   2.75559154394009      0.85013744414510     -0.10696248526281
  N   3.76498472626058      1.70625497131114     -0.33016550853907
  C   1.38280243523608      1.16225503882207     -0.08485066724185
  C   0.89845470033457      2.37427640774217     -0.65356463545327
  N   -0.21893191557139      2.98802910549660     -0.47216384209795
  C   -1.11896806423261      2.73469675624941      0.50964789054976
  N   -1.92385042132933      1.75641262329243      0.69820251241818
  C   -1.84834385224593      0.51620114397197      0.17108947487318
  H   -4.20932822770971     -2.60290431474037     -0.51211503008950
  H   -2.80871792066436     -3.60940928464590     -0.52855892842480
  H   2.16482346241124     -3.11441197610006      0.28955839521706
  H   0.44797966588740     -2.71099889702282      0.18395785172315
  H   3.62372188509063      2.69437325210895     -0.23629758755834
  H   4.71394789303290      1.37975712721613     -0.28218811798772
  H   1.55957670233883      2.84100642136595     -1.38733042690613
  H   -1.24255999210387      3.57754789799123      1.18988902058695
