30
Coordinates from ORCA-job ./opt_b97-3c_parallel
  N   -2.26285666632146     -4.81383800987650      0.00812258460780
  C   -1.86417353746760     -3.72302547159382      0.00541217722601
  C   -1.36524820427641     -2.38610375232489      0.00168807037076
  C   0.02963213117621     -2.31610334597495      0.00234903902518
  C   0.99340014723164     -1.32574415519656     -0.00012427544132
  C   2.33191352896602     -1.73690677451354      0.00189725192685
  C   3.19178925701805     -0.63777653926691     -0.00096758942382
  C   4.59143799671658     -0.63203818863904     -0.00015243420583
  N   5.75207619001581     -0.55433463188709      0.00036745618309
  C   2.41000490256705      0.54103511471106     -0.00499540306841
  N   2.90487336823225      1.77306509975424     -0.00851933028236
  C   1.00275086509306      0.16503919605617     -0.00465365138696
  C   0.01196385556321      1.11814912459228     -0.00788415117653
  N   0.37554993990737      2.44633481984744     -0.01150310593135
  C   -0.74637165735122      3.16031862706385     -0.01430924533134
  N   -0.73824630061831      4.49352742025965     -0.01811728979978
  C   -1.91544601321233      2.34232012314826     -0.01271730158404
  C   -1.49978931884148      1.03565247120422     -0.00863861730762
  C   -2.45168795451857     -0.03391951467628     -0.00614002058811
  C   -3.80193221535380      0.42614621982685     -0.00845352847479
  N   -4.89574903820775      0.81714089947795     -0.01004015731159
  C   -2.37807368181816     -1.41598695334091     -0.00193567092517
  H   0.47913348839729     -3.30196391702747      0.00564745589613
  H   2.65206778541548     -2.76592421113605      0.00522377055868
  H   3.89942152901690      1.92136702074076     -0.00811546938241
  H   2.22990450130359      2.53256909083176     -0.01086521951319
  H   0.13286401355776      4.99310590888419     -0.01910424774497
  H   -1.59118249372171      5.02030595292404     -0.02037302097772
  H   -2.93269560207187      2.69284143342292     -0.01440595691917
  H   -3.36115008449761     -1.86869703419165     -0.00125004841802
