28
Coordinates from ORCA-job ./opt_b97-3c_parallel
  N   4.30052094393571      2.98730309329412      0.20521789390397
  C   3.38790997637061      2.27308009528363      0.13214477375616
  C   2.26809597998457      1.39188286944318      0.04495220900026
  C   1.04454342239385      2.05341462920964     -0.11933313492741
  C   -0.28041638566325      1.67776129270550     -0.18340755227509
  C   -1.02175889412125      0.50493947286085     -0.07477328065679
  C   -2.42600270042252      0.58769894798742     -0.05166361181120
  C   -3.22149238309616      1.73005244505025     -0.11945730723501
  N   -3.94309512279048      2.64375945172792     -0.17359383421660
  C   -2.96180158926626     -0.72768411901585      0.11234274067472
  N   -4.26848506484598     -0.99267259063373      0.20770452751704
  C   -1.90206403523525     -1.63506853765030      0.16265148566241
  C   -0.68724595839442     -0.95639791763301      0.02902096588715
  C   0.54095036262679     -1.62927665572506     -0.06536142377896
  C   0.60528684003031     -3.02765859235130     -0.17689017433268
  C   1.93460612197918     -3.45338256287740     -0.14351088738459
  C   2.75504547510023     -2.34409188025191     -0.00223926093967
  C   1.96384252714549     -1.17282460620582      0.02276068262058
  C   2.62008295356833      0.03914633805358      0.10628058193555
  H   1.16730675365155      3.12680716808182     -0.19298209584059
  H   -0.92771162558410      2.54015932167883     -0.29977443326622
  H   -4.60403879947575     -1.92791970075293      0.34073379982933
  H   -4.94603727499547     -0.25119094330475      0.17715684328391
  H   -2.01970490659292     -2.69546170172875      0.29968549230283
  H   -0.24156726754611     -3.68171303704818     -0.29493506946301
  H   2.26474978058122     -4.47766046103457     -0.22514105219853
  H   3.83239330528964     -2.34553725768932      0.04517132962731
  H   3.69129061597250     -0.09363757377373      0.20482486422515
