25
Coordinates from ORCA-job ./opt_b97-3c_parallel
  N   0.81463562195964      3.05204414451056      1.18500064685249
  C   0.87042977941893      2.06121702937695      0.26538387511125
  N   1.96576818334071      1.34311836517319      0.25362429117472
  C   2.11882343871248      0.08124675877433     -0.11853095447099
  N   3.31431729106974     -0.44345457093121     -0.37569337648394
  C   3.08136831444836     -1.78665383692331     -0.40767750036129
  N   1.84805819210353     -2.21885794385667     -0.16630991235358
  C   1.13027680858725     -1.06439434622976     -0.02396188528097
  C   -0.22870472694853     -1.05417813969083      0.17124666333474
  C   -0.96039957586491     -2.23586167174727      0.58651613176391
  N   -2.24189477017168     -2.01539007818954      0.71902994377595
  C   -2.43979640171166     -0.69367341512859      0.32119661787781
  N   -3.71397467925575     -0.25082441152476      0.25626749928692
  C   -1.24460660176309     -0.04186622663034      0.00762141239217
  C   -1.12096598529950      1.21433643571173     -0.69194470514654
  N   -2.18514946333601      1.55807557170396     -1.49745465735987
  N   -0.15389803688638      2.07025730462307     -0.63207152899686
  H   1.65624669950716      3.25611039497842      1.69531812241880
  H   0.15751671141918      3.79717185164730      1.04263218447508
  H   3.88434137659711     -2.47681303075573     -0.62803836652926
  H   -0.50504659771640     -3.18412634402615      0.82416902316703
  H   -4.40427126937600     -0.81759380192341      0.71729129458515
  H   -3.88743575220027      0.73691252588113      0.19794635139772
  H   -2.64927309096941      0.80080658634855     -1.97173308703913
  H   -2.01331466076447      2.36588018752842     -2.07458108609142
