32
Coordinates from ORCA-job ./opt_b97-3c_parallel
  N   -0.78965846886122     -3.89552238364732     -1.23900518033752
  C   0.02341723297721     -3.19928887447161     -0.77692879762243
  C   0.97928121296504     -2.37178820671461     -0.17729240695841
  C   2.27505347963279     -2.77306652084745      0.12670106334734
  C   3.02892877779776     -1.64228314763975      0.49235062031654
  C   2.26467634781977     -0.49132394454465      0.34411253698854
  C   2.74512430627628      0.79245295593090      0.77145235664693
  C   2.57792936826632      2.01617520866007      0.21531577233085
  N   3.32249106077798      3.09916490430753      0.66075984861548
  C   1.79811086257169      2.32842957299167     -0.98101560300157
  C   0.52408829421975      2.01545337083312     -1.22627498933001
  C   -0.38199113936209      1.20936577397816     -0.43476600603500
  C   -1.75444781291424      1.51916710650147     -0.34408990317910
  N   -2.32717608980050      2.66157899441125     -0.72997968142192
  C   -2.49594739755325      0.40050083205156      0.17086702914518
  C   -3.84112432815804      0.40904149190495      0.52654807605581
  N   -4.97111873397489      0.43330935487974      0.81334791032554
  C   -1.57894135701531     -0.62150810766712      0.37812548720272
  N   -1.81325579183198     -1.75152669226551      1.03019994608538
  C   -0.22439755365548     -0.14196661085132     -0.05081735689260
  C   0.92023193704886     -0.92295309259558     -0.03749529700153
  H   2.64251953187928     -3.78308043320099      0.03830918646320
  H   4.05492757377306     -1.65687688734213      0.82596142535779
  H   3.46032023597682      0.74388192345234      1.58927238442011
  H   3.76265049065645      2.98670213789520      1.55936332385407
  H   2.88298350923034      3.99914066863334      0.55976965841612
  H   2.32206296501717      2.93900978739657     -1.70967740373702
  H   0.10598596738735      2.40145978305306     -2.15540158850919
  H   -3.31887266860267      2.79431610496196     -0.63680132444038
  H   -1.76622917011377      3.46437542517599     -0.94943955654259
  H   -2.76017262803261     -2.01414000138436      1.24683107916236
  H   -1.12246552189766     -2.48190984394696      1.04679483167510
