32
Coordinates from ORCA-job ./opt_b97-3c_parallel
  N   -5.77335693071602     -1.03634274669526     -0.89210670288280
  C   -4.70391775896339     -0.66614059038565     -0.61886073663718
  C   -3.40315359001953     -0.28696864819493     -0.27803513928117
  C   -2.88918964945632      1.02306611480174     -0.11528958990565
  C   -1.53581687838872      0.99986298386689      0.19897560991705
  C   -0.87295637157628      2.13719400088036      0.78184478118446
  N   -1.73444913123405      3.03519652749174      1.36112490166233
  C   0.45975539974097      2.48561599335313      0.79025687116120
  C   1.55021293180670      2.05866955175747     -0.00409856854688
  N   2.43745781517986      3.03635648310778     -0.29975045206172
  C   1.89544789925797      0.74777290151474     -0.42766255374413
  C   2.95755949992118      0.68606094569367     -1.35708899324928
  N   3.79735550251414      0.72375073321676     -2.16265184709584
  C   1.45095521658471     -0.49042725089485      0.10329978227116
  C   2.26241005922853     -1.62914061548633      0.19786435177741
  C   3.65721108583984     -1.71925044882939      0.10138634606731
  N   4.81273095639265     -1.84048742211687      0.07025939431922
  C   1.41417937572979     -2.71067336257637      0.56649556599990
  N   0.15107451212866     -2.35771359654075      0.66758133744149
  C   0.08836388925469     -0.99551121593429      0.40291027171483
  C   -1.13180039858430     -0.39187975880657      0.24038383774917
  C   -2.36336956766053     -1.18409428154225     -0.00733858277891
  N   -2.41651687229877     -2.50771542837161     -0.03903472679787
  H   -3.48900723157310      1.91381772579464     -0.21271462302657
  H   -2.58424891272968      2.67603222066256      1.75950262444887
  H   -1.34219561714635      3.82343666181403      1.84577646786016
  H   0.67863038781388      3.39444436401445      1.34094640752921
  H   2.16778565753624      3.99882961077726     -0.22281637499886
  H   3.27928335940299      2.83267609416401     -0.81176031481933
  H   1.74069878283982     -3.71806418180451      0.78050475233435
  H   -1.58106822431647     -3.00713186296972      0.26316486356092
  H   -3.28089468180794     -2.97849849696253     -0.24722113076974
