33
Coordinates from ORCA-job ./opt_b97-3c_parallel
  N   5.64471567483356     -0.54652324795299     -1.34890663521959
  C   4.60985863728149     -0.21955454513121     -0.92774327709881
  C   3.34301053327061      0.11228628696273     -0.43971017993065
  C   2.94619873225305      1.32312206141627      0.19460824279890
  C   1.59001870904469      1.31409980229644      0.42449887794162
  C   0.91937235432329      2.28668352592721      1.26965336488910
  N   1.57149931667611      2.64883599342416      2.39760012626056
  N   -0.17006812024590      2.93092161485413      0.98392349250270
  C   -1.05285595516147      2.76895174338052      0.01594131733616
  C   -1.70370924610514      1.62833760580626     -0.42376983305149
  C   -2.75366654750371      1.85789325442258     -1.34986588784291
  N   -3.57970208118390      2.06160141587179     -2.14109044177090
  C   -1.49551692370893      0.27420794049295      0.00096470317284
  C   -2.52159598521807     -0.65780933199186      0.05943336384920
  C   -3.90650061966764     -0.46951260233256     -0.01024025086965
  N   -5.06919419375707     -0.44940548744905     -0.00404465245667
  C   -1.96431521689787     -1.96589513695009      0.29919775109827
  N   -2.69050739014103     -3.05789534218520      0.50683406957914
  C   -0.56736608275670     -1.85211845896694      0.32808006432332
  C   0.24063289339072     -2.91303104062748      0.73020085577835
  N   0.87568517151352     -3.84279166166488      1.03332413546645
  C   -0.21567965017240     -0.47220048108788      0.15294497835761
  C   1.06637345804743      0.02192435150256      0.01404088728969
  C   2.22436848495093     -0.71881592608087     -0.53219338149037
  N   2.19465840633891     -1.86578076979109     -1.23787001969448
  H   3.62336099226299      2.11445000205776      0.47433679818566
  H   2.28972697385048      2.05782381633527      2.77098086879761
  H   1.14608892665671      3.32921079932743      3.00390928797198
  H   -1.41855115784724      3.69912224704105     -0.40979370177198
  H   -2.25277205816396     -3.94266614054830      0.69773824051762
  H   -3.69545257597326     -3.01352488857526      0.50877757828063
  H   1.53744787773544     -2.59007079553622     -1.01174481544230
  H   3.07755173567383     -2.20175190564700     -1.58821390695841
