29
Coordinates from ORCA-job ./opt_b97-3c_parallel
  N   -4.62117257528995      0.59926900600933     -1.80003790534909
  C   -3.68837661177053      0.69487193216577     -1.11352937377929
  C   -2.55104986234460      0.78922720574219     -0.26794620349671
  C   -2.03872444123036      2.03652188172776     -0.09269626980097
  N   -1.12435043641048      2.47398466971044      0.81296623071232
  C   0.08245736126416      2.08572638053354      0.97158625750298
  C   0.82403592778338      1.04395522928532      0.30835240784656
  C   2.21976569510955      1.11915171641065      0.15713864160949
  N   2.98550150827665      2.20189305401819      0.31997438739920
  C   2.76088424456062     -0.17330128873144     -0.17998435195651
  C   4.07612761408086     -0.43782536430870     -0.55430386661429
  N   5.18042356223596     -0.65266181445701     -0.85876724187302
  C   1.69791300506291     -1.06214628715338     -0.19745956631111
  N   1.73786031969679     -2.32788825559966     -0.60518544983863
  C   0.45295816442540     -0.33221168253012      0.17260215431629
  C   -0.73563813662564     -0.97331768407904      0.43203820484401
  C   -0.85083163714656     -2.37103260721611      0.83217776619863
  C   -2.17103630661139     -2.66394084805423      0.98114345608464
  C   -2.94358018898585     -1.50475362837731      0.61882448607396
  C   -2.10427235172645     -0.45759722107911      0.33824535367200
  H   -2.50923092803999      2.84703772536021     -0.63918439417932
  H   0.63635893757239      2.63178548656897      1.73920555784483
  H   3.97894088015032      2.14873068779538      0.17907004005564
  H   2.57842549978654      3.11652560035789      0.38553032452395
  H   2.59193869832235     -2.72138509177304     -0.96121305029393
  H   0.88493992011748     -2.84427178899994     -0.73208480132546
  H   -0.03094299105597     -2.98567886061900      1.16664626233032
  H   -2.58011639948099     -3.59237792159156      1.34812970069423
  H   -4.01941871002659     -1.47024451041592      0.54480357970963
