33
Coordinates from ORCA-job ./opt_b97-3c_parallel
  N   3.36034279619417     -2.35946201382631      0.97762948344095
  C   2.84061803531431     -1.36483434149731      0.64710369530573
  C   2.24955945546676     -0.18776430829874      0.21423815056436
  C   2.89457551346363      1.06723762184644      0.22307297943344
  N   4.18561775813741      1.31126285204799      0.50593633435834
  N   2.06231312933572      2.08979620682371     -0.09980110285743
  C   0.84478550588354      1.56228103671660     -0.23995731712398
  N   -0.13353716416280      2.31320591035288     -0.79168497331046
  C   -1.34276856031776      2.43558219013392     -0.36494318787379
  N   -2.13871519157079      3.33714989525496     -1.00922458775481
  C   -1.95461319648907      1.80754636261541      0.80551047071266
  C   -2.13677836180353      0.47528427861207      0.91649574059406
  N   -3.01469784799142     -0.02823038072857      1.89258469346256
  C   -1.57686241052500     -0.53810374451841      0.03996245134869
  C   -2.27598080042456     -1.70323538301464     -0.35381313301319
  N   -3.61461094179695     -1.89231619539655     -0.25453631154034
  C   -1.37797891970623     -2.65436006689685     -0.90825394375847
  C   -0.10684626753202     -2.14129114794430     -0.81386548639137
  N   1.00968276106055     -2.68264210900352     -1.35709459471632
  C   -0.19546344278034     -0.76866815969797     -0.23230765492751
  C   0.86787346470178      0.09671035826500     -0.04685761525209
  H   4.75096451099590      0.58739356747965      0.91163135685697
  H   4.44966719569056      2.26487492752100      0.67743789221894
  H   -3.13264374666235      3.20419702679871     -0.96197069583469
  H   -1.77360505657321      3.71880947741097     -1.86670654293840
  H   -2.41564752970024      2.47786271540421      1.52264660870156
  H   -3.31463417842509      0.66162839516287      2.56515232665782
  H   -2.65174875760172     -0.84907105057736      2.35583844409888
  H   -3.95808097311793     -2.83539130588677     -0.30584336458264
  H   -4.10330027387233     -1.28484832712102      0.38579076460976
  H   -1.65816439998031     -3.59107535278729     -1.36428103317956
  H   0.92658964434605     -3.62888281136410     -1.68677199708610
  H   1.90217700714325     -2.48738275838676     -0.93478191752355
