32
Coordinates from ORCA-job ./opt_b97-3c_parallel
  N   4.61245418436362      0.68812979235701     -0.72370836552913
  C   3.33519861574223      0.35362869827713     -0.38808650679715
  C   2.93554595931620     -0.98039302351122     -0.04171276283326
  C   1.58422552719704     -0.98906578203975      0.17634604600754
  N   0.93460331894377     -2.01617982609641      0.78131699472089
  C   -0.27967077922142     -2.38178112843026      0.52317141613559
  N   -0.87309417366034     -3.24724872047994      1.40552359336670
  N   -1.05042829884816     -2.13150786687527     -0.58566610829311
  C   -1.67172276730545     -1.01212155202873     -0.77730713884582
  N   -2.68722258931987     -1.04146180099646     -1.72477745957942
  C   -1.47073136015099      0.24192995423761     -0.10252031235680
  C   -2.46638412355044      1.21435815169124      0.10209721612138
  N   -3.80611248806106      1.07972758798739     -0.12595813567929
  C   -1.87532442881872      2.43639583803376      0.52957279516619
  C   -0.51086381052344      2.27592264490397      0.51134636678686
  N   0.42574088299935      3.21178570329848      0.85456773356405
  C   -0.19524774180325      0.89181827655756      0.12602032266357
  C   1.09433313842528      0.42539444182119     -0.01496990518168
  C   2.24749812432693      1.21276910294611     -0.30299984816481
  H   5.19798973158980     -0.04284184391940     -1.08847643894289
  H   4.75914201681284      1.58558749587874     -1.15239716673516
  H   3.59710880315230     -1.81519934289551      0.12654161774345
  H   -1.59465038401047     -3.83287772773187      1.02368646652424
  H   -0.24338912630096     -3.69226485911167      2.05208169943070
  H   -2.77146423697232     -0.21494997342539     -2.29492208936234
  H   -2.70074264830197     -1.90070846394135     -2.25178035318652
  H   -4.41607930559298      1.70399053808083      0.37174825979000
  H   -4.15513155513465      0.14252684441916     -0.23827568603801
  H   -2.41499266742478      3.32819324825824      0.81080319966026
  H   1.33451860559502      2.83746635530203      1.08768872172951
  H   0.11081445247808      3.92814301134867      1.48765714496554
  H   2.22812434505883      2.21223941908407     -0.70791595845092
