30
Coordinates from ORCA-job ./opt_b97-3c_parallel
  N   -0.36404684961219      3.81351209492883      0.91202929314179
  C   -0.12184426486588      2.60212357320490      0.32019208031247
  C   -1.16455845482507      2.20214418993075     -0.60708603448736
  C   -1.84696221328153      1.02354117968820     -0.65208730322938
  N   -3.08086485953281      1.02369649798184     -1.31321543470104
  C   -1.49976977743922     -0.24116199251098     -0.05902160240879
  C   -2.40627468499063     -1.28909443477987      0.22085826992620
  N   -3.75779180983692     -1.24849391215765      0.24323866458007
  N   -1.80799897778925     -2.49971991000700      0.45110680699954
  C   -0.51222355426184     -2.28547560267134      0.27333004570203
  N   0.41922892264495     -3.22536188217191      0.38684417464216
  C   -0.20856471172371     -0.86400930089005      0.00472872440314
  C   1.07757592806431     -0.39561574068122     -0.07320496403457
  N   2.16350006048327     -1.22896029988650     -0.26468558226547
  C   3.20154696019314     -0.39970951916026     -0.23741354694251
  N   4.47799965083970     -0.80347448779430     -0.41194701471831
  N   2.93820017331389      0.92101443372256      0.02286679648453
  C   1.61493741631461      0.97412407740953      0.13399645783464
  N   1.03091534791191      2.08478885237772      0.60943909827335
  H   -1.31798309875507      4.08868769589506      1.06235587848838
  H   0.30705564458695      4.09893875085748      1.60623802597362
  H   -1.59675852479526      3.03328520136604     -1.15474505403051
  H   -3.26331981568883      1.86073989252006     -1.84326037074042
  H   -3.25827401639507      0.19326027694734     -1.85760633153067
  H   -4.21068931899799     -0.35292457710276      0.28669225329556
  H   -4.21634739471349     -2.03130777142624      0.67484581340493
  H   0.15596984732306     -4.16229937282677      0.63337082211074
  H   1.37815747198795     -2.95058595049631      0.18511173999900
  H   4.62661826761013     -1.70115782323723     -0.83590022988166
  H   5.15119283973043     -0.08543490603024     -0.61011037070126
