29
Coordinates from ORCA-job ./opt_b97-3c_parallel
  N   4.66352061139387      1.01908392750333     -0.81462435732313
  C   3.72172412933342      0.37803115609100     -0.57523355455976
  C   2.54601158208809     -0.33053518287200     -0.30798983341555
  C   2.43722238586293     -1.64503975623706      0.09299722147662
  C   1.07876205456888     -1.96197107592081      0.33688917879765
  C   0.66175661813862     -3.22482194604272      0.77781569029329
  N   0.36371530989385     -4.28216740285222      1.16019454776992
  C   0.28111994013259     -0.82231785659117      0.08939947835707
  C   -1.10239080172311     -0.83149214524697     -0.09900630989545
  C   -1.81641463185011     -2.00874893320160     -0.46948547413470
  N   -3.09869547063553     -1.76977005020494     -0.72916172219161
  C   -3.30190133869956     -0.45621557331244     -0.45826977082328
  C   -2.12832628109693      0.21021657734019     -0.09466998397266
  C   -2.14307306541871      1.54526291373043      0.38840605715541
  N   -3.34853481106510      1.97408041842227      0.84608978918332
  C   -1.14142184640128      2.52529060575044      0.40977447017126
  C   0.14410282609753      2.61090404949638     -0.10479359416543
  N   0.64920350542582      3.87515513183691     -0.23999130665373
  C   1.10403629130065      1.61323915627823     -0.45326680891206
  C   1.22919236267124      0.27590320731488     -0.24378680782247
  H   3.25879682946916     -2.32961341071044      0.22802835671493
  H   -1.38952642554800     -2.98300076259657     -0.63683875530296
  H   -4.28018986144472     -0.02189113416190     -0.60242354938854
  H   -3.47991218944046      2.91915277482382      1.15437949302818
  H   -4.05260460546671      1.30721414823713      1.09879281751545
  H   -1.48892521413096      3.46913275267038      0.81879757118300
  H   0.11404848633497      4.66313143955639      0.07532838709422
  H   1.64247043158112      4.01428301429394     -0.28580693728923
  H   2.02600420842755      2.05577930580469     -0.81615386238976
