31
Coordinates from ORCA-job ./opt_b97-3c_parallel
  N   -3.80830339133785      1.35791639654325      1.43877817094458
  C   -2.80661647730174      1.11652337742989      0.89725296080993
  C   -1.55239485791521      0.96139901904131      0.25813746724563
  C   -0.94164193430485      2.17390370112157     -0.16456724147913
  N   -1.70858496488533      3.29149800651385     -0.04980786166830
  C   0.29141179854166      2.40582615281826     -0.81550231485882
  C   1.54675043247107      1.84746303462554     -0.67819434043223
  N   2.59153733446216      2.58709348590860     -1.17710724839629
  C   1.94841379514474      0.64706307293265     -0.01715951931512
  C   3.23053919010287      0.44268934381386      0.48740204127094
  N   3.46180162881325     -0.83603908236162      0.88628965165018
  C   2.35790032194547     -1.51264133038442      0.57932146914600
  N   2.24623212519629     -2.83951667891815      0.86369297040729
  C   1.32142705153880     -0.65671708738433      0.01414910771440
  C   0.04930139856488     -1.10069763839827     -0.30528644205301
  C   -0.32720036938836     -2.43100391300464     -0.55057995206144
  C   -1.72272672270840     -2.45448476431695     -0.49940920079058
  N   -2.55451928431582     -3.48540474310972     -0.70987553064870
  N   -2.26688804113194     -1.23676698099868     -0.19222454272031
  C   -1.25992163334377     -0.37095684385147     -0.12639971938158
  H   -1.26861810956577      4.19140315912500     -0.08281402173325
  H   -2.61378069488796      3.24208754267258      0.38619013094451
  H   0.28119490085707      3.32914167318257     -1.38646401589451
  H   3.40961635442530      2.08687893566101     -1.47500207325786
  H   2.38093310066370      3.41623336610629     -1.70378097606011
  H   3.99940989393890      1.19101211430357      0.61097026986733
  H   1.30552659702938     -3.18825921252857      0.97323750704518
  H   2.89850518090134     -3.15519443563343      1.56438478837660
  H   0.31977520316318     -3.23255753859873     -0.86420597439639
  H   -3.53927068916062     -3.29061672749905     -0.75532014760717
  H   -2.22223548211201     -4.34484842091037     -1.10460338166791
