26
Coordinates from ORCA-job ./opt_b97-3c_parallel
  N   4.26562594907674      1.31288242964646      0.39295674863315
  C   3.05051127911247      0.76577227659484      0.15057246774931
  C   2.84718810005688     -0.65805513503094      0.00879236273012
  C   1.52335394847932     -0.88651176746074     -0.21476235396019
  N   1.04722130662190     -2.07730970554598     -0.66592463818914
  C   -0.07744536001315     -2.64735007525901     -0.42197778875047
  N   -1.02978936178346     -2.43847867219789      0.52074621062526
  C   -1.72077180340503     -1.36577257283798      0.71411158535241
  C   -1.67814889614222     -0.09413450396628      0.08082265436782
  C   -2.79317502478292      0.75178478392785      0.06603819516914
  N   -4.07113137693292      0.41656078064928      0.42598381965241
  C   -2.38477830837050      2.06932327226933     -0.32009512473585
  C   -1.02968056543788      2.06487123211047     -0.47879928998806
  C   -0.51978734436120      0.73568504770884     -0.25975314733252
  C   0.83110858591007      0.46410777573012     -0.19953711904476
  C   1.85253292101373      1.43139640811982     -0.03821545492418
  H   4.98026120944177      0.73458902219635      0.79678491289276
  H   4.31859487012822      2.28758052201692      0.62970514166126
  H   3.62464286254839     -1.40390528470366     -0.03288002342566
  H   -0.26099502715804     -3.55948398503023     -0.99037450926292
  H   -2.48609535163391     -1.46612172238298      1.48743920770975
  H   -4.79145296720661      1.07521855317208      0.18813153754286
  H   -4.35142348462467     -0.53828673265963      0.28863372056689
  H   -3.04964467078545      2.90827952403027     -0.46485298029293
  H   -0.42644010468808      2.90195763846177     -0.78884043885245
  H   1.69884912073651      2.48890310294087      0.09699820020601
