29
Coordinates from ORCA-job ./opt_b97-3c_parallel
  N   -4.69995577939498      0.93818451782320      0.38033721495686
  C   -3.59425805534130      0.59202872066298      0.26430467789414
  C   -2.30265748380450      0.08182420045438      0.14004458011129
  C   -1.10501170111955      0.81428638576029     -0.09237838926029
  N   -1.15283403660184      2.08479167279886     -0.34282301391801
  C   -0.34560758252014      3.13145160927128     -0.33218737878490
  C   0.83772592487742      3.36130110356695      0.33660802813906
  C   1.81494541423900      2.47572452576436      0.80269295456409
  C   2.10016143770006      1.16423143186569      0.50030868688508
  C   3.41205744928768      0.67744911804442      0.73263383924686
  C   3.60531776346847     -0.50901070821753      0.06176738075994
  C   2.39057995509209     -0.88406511944122     -0.55964421515877
  N   2.27767088337768     -1.91807367950613     -1.43121223207917
  C   1.38895208203093      0.07609489911163     -0.23601154012164
  C   0.02607317649269     -0.19484339783527     -0.17633922161047
  C   -0.58990454579803     -1.46367281807756     -0.08082626964714
  C   -0.01960929077564     -2.71990334388390      0.10726444924919
  N   0.37552735459883     -3.80656928271184      0.26472549084832
  C   -1.99703583305493     -1.28620234478844      0.14221474551467
  N   -2.85680122075664     -2.28044498557019      0.34105620994713
  H   -0.78143797952026      3.99817375749805     -0.82363380519830
  H   1.08171997063578      4.40994420185011      0.46041244977568
  H   2.60814332977460      2.96033752492045      1.36249737224100
  H   4.17089606066440      1.23300586795235      1.26137840704105
  H   4.53786741365204     -1.04376301353851     -0.03479515005346
  H   2.85885249560822     -2.72412626676042     -1.27429005778998
  H   1.35953822536611     -2.15984783731887     -1.75720647206863
  H   -2.54631591984043     -3.23639965363778      0.35529348038467
  H   -3.81848886673502     -2.08675978435757      0.56017959793046
