30
Coordinates from ORCA-job ./opt_b97-3c_parallel
  N   5.72273006135180     -1.36205037350453      0.17460999153932
  C   4.66447256164951     -0.89688686590473      0.06061388366767
  C   3.38874693278228     -0.32169261642632     -0.07778362863577
  C   3.11503100918312      0.92650474841264     -0.65904612855829
  C   1.74506172368096      1.18894244644556     -0.53253775119720
  C   1.27836869345818      2.45850445165262     -0.88682225869724
  N   0.27783279116245      3.18305004991290     -0.47414752169347
  C   -0.83247269364163      2.92393248608637      0.19284622439671
  N   -1.30582800958087      3.96951688156664      0.90481095073921
  C   -1.68893146826208      1.78937571211148      0.12610129118024
  C   -1.46932241799691      0.44666151674259     -0.00619146354866
  C   -2.58384993910687     -0.44847642905104     -0.02868724250515
  C   -3.93112288610417     -0.09558224657228     -0.05796222812067
  N   -5.06321875748048      0.18066428085467     -0.07506002146385
  C   -2.10881086996027     -1.76097862466037      0.06554017730474
  N   -2.83482786636773     -2.87504402600508      0.08123194252847
  C   -0.67547946296408     -1.72606005417738      0.12741932722454
  C   0.03818432557217     -2.92549354779788      0.14224141431516
  N   0.50866170148958     -3.99104830261936      0.15702343951475
  C   -0.23036253984540     -0.39599139120922      0.06579225527025
  C   1.12282251799573     -0.00880829670790      0.06288258546605
  C   2.17684789301742     -0.89462869682598      0.34045920683272
  H   3.84761793718283      1.60620051882054     -1.06234303911830
  H   1.95381157497996      3.00796800831618     -1.53925992533965
  H   -0.80619339965744      4.84063641763318      0.88249729963043
  H   -2.12678489705863      3.89031564223859      1.47489214853351
  H   -2.73582667056957      2.04998635817233      0.24262180021468
  H   -3.83540161470621     -2.83954273794148     -0.00145745142630
  H   -2.39243643730869     -3.77627612824176      0.13660965246704
  H   2.09307609260382     -1.87176113232074      0.77919447107860
