31
Coordinates from ORCA-job ./opt_b97-3c_parallel
  N   4.46007245097417      2.27314585649273      1.41589547036325
  C   3.58401809796195      1.74108915468807      0.86636394746163
  C   2.52552336040928      1.11179702600667      0.16357115503384
  C   1.95009829301157      1.91122544207503     -0.92092325690163
  C   0.67409005033778      2.07771360652502     -1.27140404625686
  C   -0.52314683230273      1.58915634649387     -0.61072223506792
  N   -1.57206918354041      2.40164356559742     -0.57568326242983
  C   -2.59682386125500      1.71107237489858      0.01793959021270
  N   -3.76008707299709      2.33404482643228      0.27917610298306
  C   -2.24982942401226      0.37748496648602      0.26930850935108
  C   -3.04119354297128     -0.49049309749354      1.01670856352349
  N   -3.75579091357102     -1.19563847183141      1.61220960030992
  C   -0.86616211106913      0.25722200824985     -0.13614403730781
  C   -0.10343564530522     -0.89403161429537     -0.25813147093471
  C   -0.68342092930130     -2.25927386568670     -0.48080792435687
  N   -1.93766944372258     -2.47346099907927     -0.90455242611361
  C   0.31973325314089     -3.19172509066534     -0.38581278874339
  C   1.52397195181581     -2.48617993129239     -0.14142883519221
  N   2.71374175700070     -3.06701991895491      0.06345036075722
  C   1.29924710791848     -1.07898187721696     -0.10752199515425
  C   2.28188693874339     -0.19863430163786      0.42744065348901
  H   2.68490200590146      2.48369430983965     -1.47776719586005
  H   0.46555593552854      2.76962028634785     -2.07869810359545
  H   -4.42707876614501      1.89003751240249      0.88546439316206
  H   -3.75633709792116      3.33862832605079      0.25919705731265
  H   -2.63160948435543     -1.75576612496109     -0.80020858017574
  H   -2.28966352780503     -3.41371884772136     -0.92673643435462
  H   0.23555864838587     -4.24789009810082     -0.58466357910225
  H   2.80740040953095     -4.06525532907404      0.07129189975446
  H   3.55834629658218     -2.52534919115845      0.07223761253829
  H   2.96119740553159     -0.64997526731658      1.14814103039443
