29
Coordinates from ORCA-job ./opt_b97-3c_parallel
  N   -4.67228154399351      1.64321916466060      1.13840612513956
  C   -3.60772117946765      1.39590952540700      0.74613602459002
  C   -2.28273081260990      1.16337012355021      0.28832070437135
  C   -1.45997678913822      2.28833775669830      0.33325479461104
  N   -0.31776186913173      2.57536865311569     -0.23699455759474
  C   0.78514154230227      1.97987225241640     -0.59317841634612
  N   1.59499438116521      2.72564431288852     -1.40761592092491
  C   1.31618160782496      0.73690364798618     -0.12918846632707
  C   2.67852709158524      0.49254107555044      0.05921761362184
  N   3.73087024487440      1.35455027612663     -0.02438644862889
  C   2.85186905178659     -0.91861787100109      0.31621267332476
  C   4.09492758442111     -1.49837861049106      0.60257651267518
  N   5.15746415326819     -1.90868671568124      0.83841564221179
  C   1.62193179083811     -1.53480751718195      0.22525838597141
  C   0.62700871185949     -0.54964295830248     -0.02202207468713
  C   -0.69620319268316     -0.92774323364425     -0.21118302146394
  N   -1.01997753727082     -2.23067049173960     -0.40027430299388
  C   -2.35334597393400     -2.23681079130354     -0.45100539395852
  N   -3.07265982982461     -3.33518365666783     -0.66884102157121
  N   -2.98531624441529     -1.02702581080740     -0.28036758181217
  C   -1.99516290745980     -0.16329673940293     -0.13209114677146
  H   -1.90812710901915      3.14055111310643      0.83741646623913
  H   2.23815310408758      2.24076249389737     -2.00948380722842
  H   1.19217897890747      3.57446866525283     -1.76859504285847
  H   3.53550886837122      2.33596131951637      0.07450324475388
  H   4.59137408962001      1.05365465492400      0.40307137977782
  H   1.41724098047059     -2.58156422673589      0.35627942056094
  H   -2.61861661266114     -4.22378227506097     -0.76997613698182
  H   -4.07405823137372     -3.27728473767688     -0.67886535699981
