31
Coordinates from ORCA-job ./opt_b97-3c_parallel
  N   3.95764427259333      1.55526436905760     -2.30493202053964
  C   3.07335055552630      1.28214434662569     -1.60144900695256
  C   2.03607797813129      0.94821029753000     -0.69663637087596
  C   0.97030145812000      1.77701640197424     -0.59697394361409
  C   -0.22055936816513      1.60564695411708      0.16338410154739
  C   -0.99719944347320      2.70440361757762      0.65582803404411
  N   -0.60563890871869      3.97244308690460      0.71385800535919
  N   -2.24425019884719      2.36406514314791      1.06307476770706
  C   -2.35148020109140      1.06889762003585      0.78957530126350
  N   -3.41191948411673      0.37622094562160      1.15889326642464
  C   -1.09789730460139      0.50274071222230      0.18167818734118
  C   -0.90593441588039     -0.78841127969739     -0.27912581002204
  C   -1.88686339172935     -1.73088985337638     -0.77086563509010
  C   -3.19871733294184     -1.47848467357580     -1.18087959689439
  N   -4.30767798743815     -1.26336523787073     -1.46750867575311
  C   -1.20374323873523     -2.92481462638171     -0.95011201266955
  N   0.09290842840613     -2.83934932988754     -0.55459376998622
  C   0.32068412394605     -1.57607129427823     -0.20237865586335
  C   1.56667631537799     -1.25173573145160      0.46919142807443
  C   2.07616227723726     -2.22066006708551      1.36355209607453
  N   2.57500145237426     -2.94091876137431      2.12831108947109
  C   2.35404169469594     -0.15253398829403      0.24865261097054
  N   3.53011169469369      0.02229229201818      0.89625253241644
  H   1.02127540615011      2.67968045881068     -1.20291398658311
  H   0.34438057892379      4.23938199124435      0.53382238804125
  H   -1.24499559536613      4.66753551952715      1.05778015312608
  H   -3.57847155335017     -0.55709151858660      0.82360178299856
  H   -4.19797256331111      0.88071997587614      1.53444013611244
  H   -1.59384104269419     -3.83084204779446     -1.38624760446500
  H   4.19597966871239      0.68004741198704      0.53178621049324
  H   3.90787120957162     -0.74063248542376      1.43580969214359
