27
Coordinates from ORCA-job ./opt_b97-3c_parallel
  N   -4.31917168736018      0.28048115169402      0.37442430182264
  C   -3.03340818089762     -0.08757622067606      0.19659064871174
  C   -2.58244208890472     -1.40057347891127     -0.13942160068312
  C   -1.21252058223728     -1.34315601855644     -0.22854996489259
  C   -0.42434205057841     -2.41439950852874     -0.71572578736851
  C   0.91459156796254     -2.69030273072202     -0.67525998223960
  N   1.95283188630285     -2.17645686297288     -0.00839272850595
  C   2.29356007429330     -0.96374494156108      0.30700161438240
  N   3.45599259022155     -0.86950704262616      1.03240404179382
  C   1.71361751180636      0.30509984933841     -0.06232730715834
  C   2.44937624690791      1.47451382032146     -0.16642049140978
  N   1.70053029326335      2.61363146081760     -0.24676913760339
  C   0.44104078335095      2.21272422041030     -0.12375106830325
  N   -0.59838410153252      3.04885021029263     -0.15712588908072
  C   0.32748696506799      0.73814492653119     -0.03435488253762
  C   -0.87518063995368      0.08675156939242      0.04984790538514
  N   -2.03906031324073      0.79005878469097      0.29194967413084
  H   -5.01207108015163     -0.42569582257127      0.53981827233639
  H   -4.48962404298961      1.18131879559658      0.78627717960739
  H   -3.20042996867071     -2.26610845646034     -0.31824497313771
  H   -1.00652893204381     -3.18856463446824     -1.20297203502615
  H   1.18684966484016     -3.60701555795491     -1.19523019430901
  H   3.83203328593561     -1.74719011133841      1.35002561698849
  H   3.56507964410581     -0.08522143925505      1.64934058622885
  H   3.52741610072704      1.54213377578851     -0.19231967629168
  H   -0.42489553117651      4.03507583566628     -0.23003948288739
  H   -1.51176900664826      2.66116165366254      0.04816155134693
