27
Coordinates from ORCA-job ./opt_b97-3c_parallel
  N   -4.59628610487046      0.39828603928402      0.07461663533617
  C   -3.49186659407611      0.76941069335797      0.04188419903661
  C   -2.15304074243780      1.16344990998095      0.00827231281746
  C   -1.67033229245374      2.46855253693266     -0.10644966647446
  C   -0.28217655111954      2.45308060955450     -0.13565191579249
  C   0.19331558912442      1.13561006148839     -0.04149019611769
  C   1.55685530708577      0.82821142367333      0.03890936339812
  C   2.54612237302691      1.82473269508372      0.13581903649971
  C   3.81066003919025      1.24127818334464      0.10856675050319
  C   3.66882267504012     -0.13925611926399     -0.01088847649589
  C   2.30013685455722     -0.46596535880473     -0.03618947966368
  C   1.93900648947734     -1.80276011300951     -0.11474673032994
  C   0.78897455503973     -2.56514994638551     -0.08611296688392
  C   -0.57424659268627     -2.29759071668381      0.05672985792896
  N   -1.38198934034226     -3.40387226333926      0.17371498197652
  C   -1.28749944929828     -1.07846516384231      0.11546479250822
  C   -1.03037514158345      0.26266766884351      0.02957183238577
  H   -2.29222471470040      3.34771765983485     -0.17374603679318
  H   0.33333124381790      3.32955553410137     -0.23172617355761
  H   2.35916426987545      2.88020872923442      0.23204863950313
  H   4.74634358824021      1.77542186530888      0.17666299676281
  H   4.46757344664468     -0.86328744987288     -0.05069130718957
  H   2.81856445437597     -2.43296986470260     -0.20484243144481
  H   1.00023136331941     -3.62760935067124     -0.15088391864090
  H   -2.37004716651631     -3.30320026929894      0.02656998208264
  H   -1.00705822197888     -4.30458356978350     -0.06172338191848
  H   -2.35399290715194     -1.25826460016492      0.21309697136330
