28
Coordinates from ORCA-job ./opt_b97-3c_parallel
  N   5.07737869021066      0.74422647878907     -0.24361623614111
  C   4.04157342644725      0.23418830750256     -0.10079971849923
  C   2.81949096704620     -0.42082438387130      0.08721890660569
  C   2.67433721737620     -1.79785027792917      0.52694845857303
  C   1.36804507706157     -2.14133197875470      0.46219417107378
  C   0.59323889537219     -0.97060233183866      0.08484219140475
  C   -0.77406457053784     -0.97310163307007      0.00150808715244
  C   -1.49921607875325     -2.23649741150681     -0.17243170500049
  C   -2.79909028689208     -1.96426698184488     -0.38482906399035
  C   -2.99299019860043     -0.52774436811403     -0.25078472554050
  N   -4.22404882612053      0.02752480414337     -0.32549054421330
  C   -1.76392656000803      0.08703868923129     -0.00804239523601
  C   -1.62952290865753      1.46949041980558      0.40276767855525
  N   -2.76677399685863      1.96583847240840      1.05575417172730
  C   -0.63305104476264      2.35371938686447      0.12326026725244
  C   0.54974410872241      2.23265280371081     -0.66695977092428
  N   1.45308385157589      1.32305801505929     -0.78207427683003
  C   1.56641332890797      0.11373516629658     -0.17745245168828
  H   3.49556323012154     -2.42186892510022      0.84044933247406
  H   0.95026965873319     -3.09046801008997      0.75075971488353
  H   -1.02770339268752     -3.20016472517468     -0.25149536362968
  H   -3.58266793295111     -2.66666656629231     -0.62656304387295
  H   -4.30078590760575      1.03093612657583     -0.33790216432587
  H   -4.97166578823755     -0.49904109792973     -0.73819561193336
  H   -3.16065641540779      1.32569008729805      1.72851005896905
  H   -2.63912523277520      2.88079220060454      1.45813097923102
  H   -0.82458390379136      3.37964948289998      0.42736699973252
  H   0.78569167397215      3.14114616022653     -1.22425168430948
