30
Coordinates from ORCA-job ./opt_b97-3c_parallel
  N   -5.19616667108660     -0.04407757409977      0.03809048915994
  C   -4.09231677892587      0.31529828980827      0.11313209341567
  C   -2.77333287233686      0.77014749599975      0.20862243204303
  C   -2.35062934923681      2.10847694448918      0.48653716028989
  N   -1.04413111909251      2.24740923241681      0.41900782516415
  C   -0.52523610560414      0.97765133769052      0.14792230056387
  C   0.83183304172342      0.79889607621409     -0.00813093880020
  C   1.76738475478831      1.92877753897911     -0.32057512578635
  N   1.37031199701984      3.18356159813688     -0.39354537347532
  N   3.00139798336021      1.50986519674826     -0.55658242457997
  C   2.95666900744401      0.15987462013854     -0.33709081679935
  N   4.07540769082060     -0.55294964739927     -0.47559092812075
  C   1.66426140859851     -0.33591475166770      0.00848526270966
  C   1.40340969113900     -1.62893278289158      0.61276657775174
  N   2.50271462038092     -2.13468375301359      1.33589162936365
  C   0.28226536405492     -2.37284209670536      0.52463436485935
  C   -0.83990986036833     -2.20241930658342     -0.40246701405226
  N   -1.15471023933423     -3.35022847767214     -1.07785268871586
  N   -1.63500174698045     -1.20554951288162     -0.58898672181564
  C   -1.61155486632783      0.02498923585759     -0.02769718523586
  H   -2.99998859759465      2.94014790100136      0.71811409905819
  H   0.40558101427321      3.36888672463622     -0.10275292440008
  H   2.03072214763297      3.90874889229079     -0.61462068172209
  H   4.94041745120401     -0.06206854316396     -0.61837734777510
  H   4.08484359352481     -1.50937819353758     -0.16028754854558
  H   2.29172378568016     -2.98759137202972      1.83197064132643
  H   2.90076778183047     -1.45341755920420      1.96801347592949
  H   0.24482252070114     -3.29568028814108      1.09420697765411
  H   -1.87818922793297     -3.26452249687889     -1.77313617789529
  H   -0.42258854355475     -4.01108834323771     -1.26593910806928
