30
Coordinates from ORCA-job ./opt_b97-3c_parallel
  N   4.77804208505310      2.96946626278348      0.56812865964517
  C   3.84799540601056      2.31734916058957      0.32100656996037
  C   2.73446121336461      1.49676383270521      0.01385275483365
  C   2.98607088868539      0.47660175534103     -0.95194107227915
  N   2.42747298872320     -0.66810813010539     -1.11772350668710
  C   1.46096821564255     -1.37112100567726     -0.52927920326401
  C   1.59504599184022     -2.71551826136369     -0.26715392989584
  C   0.32123346967745     -3.23552792067479      0.05953550316220
  N   0.05771821856801     -4.48951420730225      0.41387225491332
  C   -0.66386464479410     -2.20628516948465     -0.02854932585508
  C   -1.94704939738791     -2.42944057604465      0.46117038663383
  N   -3.00879961327509     -2.70856537166393      0.85710562862418
  C   0.01130518276692     -0.98780836566002     -0.31015631915737
  C   -0.49158577809411      0.29586813471350     -0.28861952531410
  C   -1.89152757069970      0.62720949810735     -0.39156500248909
  N   -2.85165520466610     -0.07773514217229     -1.01018578126971
  C   -2.08319428361408      1.92455029206987      0.13447199970277
  C   -3.32063478701354      2.57726938352767      0.16647904599187
  N   -4.37592062655650      3.06687536663928      0.16763696479541
  C   -0.83836284081224      2.42068087441638      0.54734416216392
  C   0.18131436962070      1.51856290785877      0.23633146664970
  C   1.49667329812382      1.90317923727491      0.49238477194630
  H   3.80576379582794      0.68408873155801     -1.63732846463889
  H   2.49793456784685     -3.28602215900682     -0.40453442050660
  H   -0.87987479631144     -4.76703438789789      0.65307025742018
  H   0.79587472126520     -5.14873683795493      0.57951163483316
  H   -3.81150735218169      0.18571878176481     -0.86184307280561
  H   -2.70644620216461     -1.04072877275758     -1.24763187145697
  H   -0.68390949981317      3.38600000658205      1.00130966167545
  H   1.55087674586777      2.81462002343443      1.07657908466804
