31
Coordinates from ORCA-job ./opt_b97-3c_parallel
  N   5.13442851338324      0.29027276320292     -0.31079753697933
  C   4.08913086813758     -0.17125212723359     -0.08410346498347
  C   2.82480278947314     -0.70963134158363      0.17546220784879
  C   2.56024197665277     -2.04321413987979      0.63332250093796
  C   1.20830289516769     -2.23668347771887      0.68295488232320
  C   0.55382824711739     -1.01180323383442      0.29626763289890
  C   -0.79247501000415     -0.87268003460812      0.03462804037711
  C   -1.69009064142668     -1.98894712925872     -0.37902726385214
  N   -1.29187570052776     -3.24397200416938     -0.61201552720856
  N   -2.92783927580312     -1.58976565299089     -0.60497404754616
  C   -2.92393499625424     -0.24577761170399     -0.32626627663049
  N   -4.07270823735473      0.43625667482256     -0.41964766684687
  C   -1.64770704684871      0.25949356434570      0.00581332634991
  C   -1.40002626533671      1.54958214445843      0.62775645498626
  N   -2.40754369866367      1.98099064675232      1.48621947451990
  N   -0.41129324026857      2.34758972121375      0.46341098190999
  C   0.58257061614596      2.22909648117989     -0.47934226007546
  N   0.65472976538252      3.34622704873758     -1.27805986466209
  C   1.52980925988641      1.24532948531025     -0.60209402468217
  C   1.61202643157589     -0.02623216985534      0.00596027800071
  H   3.32248854065279     -2.74754331286521      0.92721024399812
  H   0.71649346901215     -3.08771737871722      1.12642794613116
  H   -1.91820211244607     -3.84371577065407     -1.12147215967705
  H   -0.30502162886536     -3.43739785049054     -0.65762320982092
  H   -4.92535734615500     -0.08217189065929     -0.53228045295279
  H   -4.11324860674070      1.38069179221303     -0.07677878776550
  H   -2.14804151628336      2.81259837628576      1.99538633976680
  H   -2.79273618203492      1.26255438908014      2.07972459272509
  H   1.51285717638547      3.49066728725112     -1.78340929026365
  H   0.26294124026263      4.18048803567494     -0.87456250313945
  H   2.39487498597835      1.51447197049451     -1.19930808588792
