25
Coordinates from ORCA-job ./opt_b97-3c_parallel
  N   -0.15737506201856     -2.99463385276108     -1.33209005388514
  C   -0.21258905656842     -2.07865331965802     -0.34225978431643
  N   -1.41266370234987     -1.55392689851151     -0.12225026332641
  C   -1.76609896104993     -0.34496634655036      0.21083414691890
  N   -3.03343008700346     -0.08589690747820      0.58855594802247
  C   -3.15315671901253      1.25461228919052      0.53597384957189
  C   -2.00684461575533      1.93521415748932      0.11350345771989
  C   -1.01032835374640      0.97414577538326     -0.03556413298304
  C   0.33362299580103      1.18883039200899     -0.32018633367082
  C   0.83929046847747      2.43032176894969     -0.81128005546800
  C   2.21366741161776      2.40211020621033     -0.77991676862509
  C   2.62915892487465      1.16425340760565     -0.22105246520832
  C   1.50974695334944      0.38649242786769      0.03569710135808
  C   1.57645570506282     -0.89283454447692      0.68729978503644
  N   2.59179488975354     -1.06386558203261      1.57530443833800
  N   0.87243619113467     -1.96132576140983      0.42015334020307
  H   0.65393259715872     -3.58272265921543     -1.39303916995890
  H   -1.02440520447943     -3.33474522649430     -1.70931872084720
  H   -4.08510123820615      1.71695230212420      0.83545888828171
  H   -1.88275550888195      3.00350293551604      0.06442294463605
  H   0.22193373452571      3.23431792279769     -1.17676843512614
  H   2.87523176677173      3.17981698804752     -1.13001328739497
  H   3.65133047508794      0.85141666614352     -0.07387169630631
  H   2.63032429811218     -1.93998357309852      2.06620634165265
  H   2.95995228384431     -0.25530215604770      2.04013045117760
