28
Coordinates from ORCA-job ./opt_b97-3c_parallel
  N   3.96021022437715      0.63416244685912      1.33138012003332
  C   2.91409260181849      0.52842282483715      0.83591095339739
  C   1.63016930807797      0.24457175749614      0.30188056970529
  C   1.03078521800503      1.33744030210421     -0.36202584318929
  N   1.79514983699767      2.36065051036225     -0.72315341821686
  C   0.95486716793513      3.36239926723318     -1.12680259580932
  C   -0.37840783814301      3.06630626725720     -0.94336165666252
  C   -0.42869995399201      1.74465166900118     -0.46131952829839
  C   -1.53574447769661      1.11513063932189      0.06271829993950
  C   -2.69731500662021      1.81932206685812      0.55596227929631
  N   -3.59464261534257      1.00698103400894      1.06985040069083
  C   -3.11366499557946     -0.26779528587543      0.86358865745259
  C   -1.84966889383911     -0.27916005080187      0.29523485908490
  C   -1.23097422580646     -1.46159687421970     -0.23322592121892
  N   -2.10454533096451     -2.39825852420881     -0.66199936619166
  C   0.13503072278286     -1.77921766800482     -0.26875872165854
  C   0.43764413644427     -3.05299012845365     -0.79803679014806
  N   0.63610520326011     -4.11378039657831     -1.23649480166510
  C   1.26437910185596     -1.12302680427260      0.35525476677316
  N   2.15181243487617     -1.96426495383302      0.91838800353467
  H   1.37122986417407      4.25857027124943     -1.56346757008745
  H   -1.22424092043437      3.68340261416292     -1.19225978021855
  H   -2.79939443416796      2.89242047824948      0.61344351551301
  H   -3.69864154224737     -1.12163487370166      1.17137923192449
  H   -1.79012163732562     -3.28499997767894     -1.01835597099472
  H   -3.05054283013330     -2.12846363988386     -0.85488273840987
  H   1.98158467671348     -2.95374365742167      0.92876276946603
  H   3.07271960537399     -1.64831700986722      1.17651107705747
