32
Coordinates from ORCA-job ./opt_b97-3c_parallel
  N   -5.32256999180511      0.37383338906454     -0.61069645814435
  C   -4.17505154849842      0.39423506202694     -0.42916336835053
  C   -2.77052227501148      0.37423532252549     -0.19452885546523
  C   -2.15181671286308      1.59958639527414     -0.28918270967024
  C   -0.85614557564370      2.10312387934494     -0.04093655546417
  C   -0.83961121357901      3.53024233705581     -0.00875433777170
  N   -0.91610436409357      4.68866831782110     -0.00801853119619
  C   0.39744226926395      1.51383509539441      0.17804439199439
  N   1.40850256417332      2.34383644161212      0.49798092009122
  C   2.53793348387107      1.62393707396903      0.49156847207938
  N   3.70310840866238      2.17001455855170      0.83099638944157
  C   2.32344290671485      0.26207176716169      0.12789977034444
  C   3.30543868081034     -0.70472357528257      0.31277781767411
  N   4.17956001581570     -1.46238041428178      0.46965597280141
  C   0.92155567343061      0.12074700513264     -0.06953393716717
  C   0.26017161635092     -1.04773780763492     -0.40809208478199
  C   0.90938252586673     -2.22776296024032     -0.88576595572149
  N   1.99638863087809     -2.27478651571760     -1.67851964598407
  C   0.17670547596868     -3.36675387941468     -0.49391054459244
  C   -0.97210583345012     -2.96185124674570      0.16146065170630
  N   -1.93689292169931     -3.77471557298086      0.65475777475003
  C   -1.07438216869837     -1.51442140964603      0.07282253381999
  C   -2.28883889113670     -0.93159113301297      0.14334065311715
  H   -2.84422637321919      2.39361283842827     -0.53730128664572
  H   4.53848220647287      1.61651033128766      0.89447260516100
  H   3.71718548272416      3.12014350517311      1.15752151417339
  H   2.55336367946901     -3.11166992294512     -1.68422411537876
  H   2.52737861919797     -1.43378220608830     -1.81421258604994
  H   0.45684348640483     -4.38741878136819     -0.70607535532862
  H   -2.53261368408314     -3.42592105256903      1.38385093838289
  H   -1.73294030346081     -4.75535971979821      0.72420199289900
  H   -3.10144751083261     -1.60908040179877      0.37806522127492
