32
Coordinates from ORCA-job ./opt_b97-3c_parallel
  N   4.84276486717495     -0.79438025542662     -0.84650474637535
  C   3.71261419061912     -0.70557987208478     -0.57185706190821
  C   2.34251390692127     -0.63087210122469     -0.23069472636491
  C   1.87640600570257      0.68319795797965     -0.11199946549932
  C   0.68472132198619      1.34402248526105      0.07449782367393
  C   0.70338787263485      2.76926492790354      0.20540171973465
  N   1.82215233747406      3.53291455496093      0.35482443039741
  C   -0.58707742549384      3.28895677857545      0.08585905337725
  C   -1.47320949641608      2.23531331018953     -0.11212497450886
  N   -2.79354727243942      2.33480847045308     -0.30262957071752
  C   -0.73813233984677      0.97206573215471     -0.06946401485007
  C   -1.37661275656947     -0.23782097949257     -0.11303197991156
  N   -2.75091637890226     -0.29190411587979     -0.26651647983931
  C   -3.10795963662338     -1.56092736558700     -0.06905916436956
  N   -4.39844102938201     -1.94799432800169     -0.19025339106552
  C   -2.00989585665320     -2.40643776988011      0.20602676106925
  C   -0.86262535251611     -1.62842578617703      0.14734114032349
  C   0.39483643888545     -2.21396128608779      0.32821199129288
  C   1.72216635496138     -1.88733276724238      0.08616778923527
  N   2.59815631798737     -2.93697697448816      0.22739297001553
  H   2.70306153219132      1.37551400136309     -0.23564385050284
  H   2.61229081154978      3.12117412113449      0.81851873132848
  H   1.68108407910900      4.49891159611767      0.59007585476150
  H   -0.85536331939072      4.33323741425375      0.14236085564219
  H   -3.25739505138887      3.21520357359120     -0.17430151489551
  H   -3.30134819743395      1.44955648385862     -0.32740147901140
  H   -5.09429850113800     -1.22359643692544     -0.21284527887098
  H   -4.68069188594296     -2.82038857754561      0.21648555345591
  H   -2.04447598868352     -3.47310494792064      0.35860580385262
  H   0.28912819125093     -3.25379993040832      0.62352774870303
  H   2.23263908937782     -3.86796585859137      0.15017947261470
  H   3.54927823299376     -2.82220127203192     -0.07803075158741
