27
Coordinates from ORCA-job ./opt_b97-3c_parallel
  N   -0.05608803416680      3.42742387158237      1.00816100584318
  C   -0.05300561008271      2.22917660066593      0.33162288054529
  C   1.26224291287367      1.73809621253280      0.01691951872391
  C   1.74988223986798      0.48356729472408     -0.14529078537596
  C   3.15068667228006      0.27538654550425     -0.38909057395217
  C   3.40853300265922     -1.06062689343727     -0.26667884212634
  C   2.20313069740464     -1.76400763999324      0.02926746994529
  C   1.14441623025904     -0.88260689907718      0.09338512426068
  C   -0.20230926733448     -1.26332135982573      0.32814505302503
  C   -0.56614341185887     -2.54570834996015      0.76883421792939
  C   -1.93994459852936     -2.73227034837546      0.58642130763737
  C   -2.47433234189896     -1.58872400494322     -0.00501322952970
  C   -1.44045489453930     -0.63467918483490     -0.13965165533735
  C   -1.68954222835418      0.67606509097178     -0.58424851210958
  N   -2.66875315112059      0.87448687609081     -1.50514262777861
  N   -1.20716684867156      1.80275588574152     -0.06338514658464
  H   0.71569739524689      3.60911653892196      1.62509990351445
  H   -0.95475442644499      3.72371409789710      1.35005697543770
  H   1.99759240270528      2.53303761510107     -0.05913744157329
  H   3.85645066246451      1.06499073750025     -0.59078604526220
  H   4.37462416604844     -1.52874750215380     -0.39185991090276
  H   2.12289474821424     -2.83513512657383      0.10800656904808
  H   0.11882210249995     -3.27605562205369      1.16807933321016
  H   -2.50093162172976     -3.60839301293215      0.87571754825076
  H   -3.52408569348523     -1.40169536388496     -0.17472045512127
  H   -3.17602279150175      0.08033334349207     -1.84890914173161
  H   -3.11854185550540      1.77259544501961     -1.53624852098555
