33
Coordinates from ORCA-job ./opt_b97-3c_parallel
  N   0.74885033221608      4.58508669595580     -1.80757352484055
  C   1.03234537694502      3.57316344437023     -1.30715700368520
  C   1.31435638695397      2.33143311707147     -0.72754519212907
  C   2.44442899120270      1.99434329274929     -0.00594230246226
  C   2.30400974710589      0.69547059556167      0.52937318978748
  C   3.19632517115459      0.10905067097250      1.42108028830636
  N   3.92876734688517     -0.43296094870686      2.15062823217004
  C   1.05046299140238      0.15802426533817      0.10767498060693
  C   0.73521940353241     -1.17289557476171     -0.11764335377767
  C   1.73056304514883     -2.20513913220046     -0.41952043165251
  N   3.07662543285278     -2.10064371429223     -0.38007050155715
  C   1.06861037235090     -3.28928076462983     -1.01533390607916
  C   -0.28904957672929     -3.04159531534335     -1.01243603860703
  C   -0.56424613289482     -1.77553044059370     -0.44851015445792
  C   -1.84190528066287     -1.47887416692310      0.04717651806439
  N   -2.69317214615049     -2.52894537405086      0.19018994557910
  C   -2.40768901152170     -0.20852342797447      0.40968110524805
  C   -3.55696735032345     -0.25550195253040      1.22723394475117
  N   -4.51721063588035     -0.26770808276019      1.88765012731294
  C   -2.15422813181578      1.03939214640612     -0.19118637059232
  N   -3.13307346587160      1.97368914001980     -0.13557701743631
  C   -0.97782321425949      1.50818198072387     -0.84498419858410
  C   0.33106130556170      1.28151139379519     -0.54644299656722
  H   3.28882050341763      2.64210273598243      0.16595710364745
  H   3.58727458111761     -2.89396367458630     -0.72837188245409
  H   3.53771372674841     -1.62400271501736      0.37996867558564
  H   1.55811202361557     -4.16190812441539     -1.41924212757818
  H   -1.03535721830359     -3.71978558561022     -1.39622262178385
  H   -2.31741050256422     -3.44655047185415      0.34032740127549
  H   -3.63698321962520     -2.37842880849593      0.50016830387327
  H   -2.91174966012830      2.93711923738288     -0.31015565340055
  H   -3.98731740424131      1.79046827286118      0.36302145973757
  H   -1.14658519463909      2.40944268765692     -1.42437688340073
