28
Coordinates from ORCA-job ./opt_b97-3c_parallel
  N   3.31218947259976     -2.13812230037721      1.29232199955613
  C   2.90429709750436     -1.12046472020148      0.89280316193760
  C   2.39380216070797      0.05853674400550      0.35116216265930
  C   3.11401483792805      1.22648414172416      0.12400808735813
  N   2.33546407010519      2.22404979134677     -0.35501605406089
  C   1.07101432708713      1.77940244246292     -0.36623120184497
  C   0.05684415869063      2.58651341444004     -0.98271473051719
  C   -1.25526713132543      2.69075751681286     -0.69063002467594
  N   -1.95869593462909      2.17994279575284      0.37296621495237
  C   -2.06197089471851      0.94153939040417      0.65312759279710
  N   -2.92629847154564      0.57409807190878      1.68005805297859
  C   -1.43307203581352     -0.19623902908577     -0.03259018335575
  C   -2.09798484989793     -1.40932150321592     -0.35202464177207
  N   -3.41128591532226     -1.62688819524920     -0.31264978283835
  N   -1.25511870458368     -2.41895110215127     -0.71552607321663
  C   -0.03760107252553     -1.92571914269834     -0.55770657528266
  N   1.03607060023682     -2.61646039704371     -0.91184129390369
  C   -0.06462335957082     -0.47665418070952     -0.11167783820997
  C   1.02135669441821      0.37888851341287      0.04677457319882
  H   4.16434197760848      1.38060787951953      0.31800751592073
  H   0.43788079375706      3.26883652807624     -1.73209804511098
  H   -1.83159033790814      3.40786787990669     -1.26747139187297
  H   -3.23007290144288      1.36427145042065      2.22991817745253
  H   -2.61063248282735     -0.19860674122283      2.24592961468912
  H   -4.01471813218856     -0.94172693164532      0.11094762464860
  H   -3.74920708606041     -2.56351503224022     -0.44893859945597
  H   1.95268502806197     -2.38107517770712     -0.56556631181050
  H   0.88892913545414     -3.56901922324611     -1.20248489652058
