33
Coordinates from ORCA-job ./opt_b97-3c_parallel
  N   2.70261854781164      3.95109702907269      1.70589606260980
  C   2.07314776917823      3.14166561082992      1.15638232776836
  C   1.33664957706813      2.17725988064054      0.43663421116164
  C   0.00474761788745      2.05119499824999      0.66614622221668
  C   -0.93875778822641      1.15981945485255      0.08718172496603
  C   -2.32261240225128      1.48691877911607      0.04519348535200
  N   -2.85268280022619      2.68338363090690      0.28146641429004
  C   -3.10336852360132      0.33192973379950     -0.27026181896181
  C   -4.47181370856649      0.32240946072583     -0.53368082777418
  N   -5.61699457107487      0.33050390353567     -0.74568526643295
  C   -2.21733809193457     -0.73178490741352     -0.40531124302448
  N   -2.51252218373633     -1.93037785131304     -0.87872057780098
  C   -0.83598078869559     -0.24709765284321     -0.12389686309395
  C   0.26161154672031     -1.07126906353708      0.01264324263768
  C   0.27901258426239     -2.45730633846918      0.48495929033400
  C   -0.75791718183550     -3.14029283898631      1.13249949035146
  N   -1.63841822202842     -3.71324448689526      1.63525663862834
  C   1.58744123319652     -2.89300104342770      0.47057638340577
  C   2.42033071429752     -1.86718062886838     -0.06355397742184
  C   3.79061034414431     -1.97923521661690     -0.33476236009042
  N   4.92650466297246     -2.07681353789520     -0.56064928156488
  C   1.64415545600419     -0.73245356271331     -0.31305363985112
  N   2.12231209169529      0.31694933391572     -1.02866257399421
  C   2.02908372200629      1.56095042888145     -0.73655759321152
  N   2.58300573828529      2.46465041285274     -1.57809619600511
  H   -0.40094355983328      2.74502482355587      1.39897628754866
  H   -3.85001900787275      2.81264025348305      0.27254492009069
  H   -2.28080795315900      3.50475867763652      0.35635697290930
  H   -1.82794930361186     -2.66630219242778     -0.88275495004042
  H   -3.47453994109168     -2.20742368141649     -0.98492896959647
  H   1.93461277145882     -3.83932370695580      0.85016345098112
  H   2.72692481371485      3.41043242473892     -1.27338821248778
  H   3.20708271754030      2.10950395248043     -2.28286520789805
