27
Coordinates from ORCA-job ./opt_b97-3c_parallel
  N   4.89329592003042      0.27103577933704      0.64749242326516
  C   3.76295616347855      0.47897403635378      0.47563573372959
  C   2.40002503003176      0.72413058440067      0.26952343248624
  C   1.76549276185483      1.93121166082057      0.24845562614184
  C   0.36366884852459      1.75127019740701     -0.00976066922771
  C   -0.53912864918831      2.80892949773062      0.12583828704233
  N   -1.28249474073448      3.69829715743551      0.24243117807922
  C   0.07408006972004      0.38297161403403     -0.14814488955784
  C   -1.18460783499448     -0.22910419807577     -0.24471954089453
  C   -2.38683350242302      0.42566763071588     -0.58945496121211
  N   -2.55480374028299      1.44611470348479     -1.46111361931280
  C   -3.48238224073165     -0.25039488918043      0.03706756534118
  C   -3.00464923653794     -1.32313691841467      0.73288247546436
  C   -1.59847234263752     -1.45825603648150      0.49373951196702
  C   -1.00618648099439     -2.66693302823724      0.72732784962711
  C   0.13619758814682     -3.26189445421539      0.14481972531615
  C   1.23832730218813     -2.71158250069375     -0.44472136697036
  N   1.79433280641321     -1.50875568616487     -0.26083100487362
  C   1.41086627299024     -0.31100041961708     -0.02306656184101
  H   2.22434533632732      2.89018053892085      0.42635941708999
  H   -1.73667933914681      1.93755066340369     -1.77422570051417
  H   -3.34123473747689      2.05750264136631     -1.31780679914978
  H   -4.51892265626334      0.02815328908261     -0.07813726826496
  H   -3.59727726218756     -2.05628490289829      1.25684602524736
  H   -1.63167748883489     -3.36208759175288      1.27649869225019
  H   0.11621378412394     -4.34595615592776      0.13351891434424
  H   1.88900794540171     -3.39003110373393     -0.98804198047184
