30
Coordinates from ORCA-job ./opt_b97-3c_parallel
  N   -4.77210670606641     -2.20636061949689     -0.49619344965658
  C   -3.75105956209803     -1.66633232786823     -0.35747202235686
  C   -2.57672693880813     -0.93003612098761     -0.15516260662719
  C   -1.27383152615547     -1.29560415427055     -0.42240056326595
  C   -0.40694031293831     -0.19700770431206     -0.14136301231996
  C   0.97377354769403     -0.31581906611412     -0.14203965031829
  C   1.71251086925133     -1.52336059355462     -0.09282777057258
  C   1.28032750086163     -2.83893040461440      0.04616081575465
  N   1.01947010974905     -3.97090777178918      0.15662723819860
  C   3.09394280809420     -1.19161861889335     -0.00170788271116
  N   4.06957055332490     -2.09281112066908      0.11943701760928
  C   3.25615011427119      0.21138806377746     -0.05704088081328
  C   2.01205696351182      0.79347975978666     -0.16872895364662
  N   1.84799496435427      2.07072544876895     -0.51280244933097
  C   0.87946388602520      2.89843010175862     -0.24866542907794
  N   0.74420677232904      3.97148635200271     -1.06551276090780
  N   0.04065190634011      2.94003962029675      0.83425210932514
  C   -0.91138836483310      2.08986380517984      1.03032324919007
  C   -1.25789386925692      0.89682426272360      0.34568723305333
  C   -2.56959062394732      0.41442433138302      0.36495419729700
  N   -3.68007547037764      1.04587587736677      0.82631383477492
  H   -0.97055779120018     -2.24567073877110     -0.82322801314062
  H   3.85067784809487     -3.07293169321222      0.18135732151788
  H   5.01683550887665     -1.81259842029460      0.29168364930610
  H   4.19234187565433      0.74133527918490     -0.10934738531385
  H   1.48147187117840      4.13927953759413     -1.72740101293216
  H   0.24727508035619      4.76802145979123     -0.70987370501623
  H   -1.56774254460552      2.34923348580163      1.86352141055276
  H   -4.56561333221801      0.59540696584359      0.66811916893946
  H   -3.71377109166210      2.04788947978693      0.79157842198733
