29
Coordinates from ORCA-job ./opt_b97-3c_parallel
  N   3.61609198379712     -2.36051363038434      1.43395432952931
  C   2.67180888583541     -2.02322684804043      0.84552689952719
  C   1.53374710151862     -1.58837732372624      0.11578275467860
  C   0.62636529415753     -2.55351509198446     -0.20228371118075
  N   -0.42066678421646     -2.53390075779226     -1.06090826475643
  C   -1.45802559813037     -1.77832608741942     -1.04449216568974
  C   -1.76965839255076     -0.66045590662986     -0.21379713281341
  C   -3.08755862711474     -0.24252005527642      0.05026949193381
  N   -4.22355309702230     -0.92423916826979     -0.18995388505821
  N   -3.17672702508020      1.01789018558246      0.58095934627626
  C   -1.93629504901650      1.47360206063735      0.58814078904775
  N   -1.63142981122154      2.67521000212594      1.10219719476831
  C   -0.95507673608594      0.48974672322056      0.07335449174932
  C   0.37168935476509      0.77220465507930     -0.16084619913626
  C   0.92383170328151      2.09068939463153     -0.31436719528685
  C   2.28320904042477      1.96853925947000     -0.48933063112557
  N   3.20288346366486      2.95115201389977     -0.70800516340278
  C   2.64133258924901      0.57039926763118     -0.37702465012461
  C   1.50960504614443     -0.17481174557952     -0.23148495255610
  H   0.82595995472476     -3.54816968764147      0.18596259651001
  H   -2.20892706000539     -2.02884732022710     -1.79778963717756
  H   -5.07660223486502     -0.52694478395082      0.16156027619521
  H   -4.19400932718337     -1.92216667126632     -0.28470614958073
  H   -0.67195345988424      2.86547022040651      1.33674011858615
  H   -2.34511624283753      3.13249237254086      1.64367889555432
  H   0.35243052675050      2.98329814272366     -0.51003942238420
  H   2.86315105449165      3.85100285021059     -0.99992573626249
  H   4.07030684048879      2.68331034202941     -1.13908053524735
  H   3.65116963012028      0.18942213939930     -0.36370285657313
