34
Coordinates from ORCA-job ./opt_b97-3c_parallel
  N   -3.27229957884129      2.81943689545417      1.11421127475526
  C   -2.14916814555657      2.59759577628898      0.89355820762574
  C   -0.81072177436992      2.33134072872971      0.57947457757236
  C   0.25241594773318      3.18716471283500      0.85304109353515
  C   1.46074127527421      2.49388202470497      0.63703615675185
  C   1.18844948753974      1.17374931205908      0.30813642407963
  C   2.20058442381958      0.24777367163976     -0.19099405775946
  C   3.16624027645351      0.78701841588232     -1.06779818248455
  N   3.99284883774124      1.18184235970428     -1.78797135690178
  C   2.37629400564713     -1.05864705823071      0.19818696215668
  N   3.50493439267311     -1.75079240035588     -0.14752030561292
  C   1.50874169475866     -1.78029574679179      1.11627365886733
  C   0.19044429984945     -2.01811658405121      0.97684360500714
  N   -0.43348476613997     -2.98445742639464      1.79440386765580
  C   -0.69607008655115     -1.43622685586248     -0.01626039908881
  C   -1.75613654736154     -2.16022429222749     -0.65965297449198
  N   -1.88710462217223     -3.49113604226833     -0.63025128979632
  C   -2.62770440898487     -1.27666880216082     -1.34333023385504
  C   -2.16477196555862     -0.00365764383893     -1.11485214109762
  N   -2.56045635044679      1.12901307393623     -1.69501047491337
  C   -0.94471831216193     -0.07666280517305     -0.23023412437569
  C   -0.24892937740956      1.03416150172657      0.22787211002636
  H   0.15329975418072      4.19571651238793      1.22121550687602
  H   2.44832386755389      2.92422784655158      0.68898738758315
  H   3.43366553532355     -2.75201366872394     -0.18326179396868
  H   4.12040055790681     -1.34168904449040     -0.83291673186252
  H   2.03334363732528     -2.27686531192324      1.92758264789336
  H   0.15991735990315     -3.31816165468090      2.53959821009812
  H   -1.31521015484893     -2.66334070755848      2.17036743109402
  H   -1.33558629161928     -3.99966887760235      0.04596908202256
  H   -2.74081500681121     -3.91455815519010     -0.94803652694800
  H   -3.43567475464014     -1.56570424723032     -1.99508425775275
  H   -2.20769984322837      2.00832057311375     -1.35529626799266
  H   -3.43169294838112      1.15843947524135     -2.19380661169890
