29
Coordinates from ORCA-job ./opt_b97-3c_parallel
  N   3.98498888216885      0.45000157845985      1.27155280364393
  C   2.93646061854550      0.41876849779958      0.76480080472722
  C   1.66116267425487      0.44291602762386      0.15528341825938
  C   1.13323634581014      1.71753503334640     -0.05835342847377
  N   1.92849465774551      2.80655979651592      0.20731367719300
  C   -0.09299273705181      2.07073960511639     -0.69367443973194
  C   -1.37076320764101      1.59665728974997     -0.58642507178614
  N   -2.37522419331995      2.36585528434997     -1.15187198962939
  C   -1.87436565509678      0.46180097979115      0.15183790630328
  C   -3.15199623966215      0.42474216290894      0.66056647976594
  C   -3.46681416117689     -0.90966239470247      1.09206889569694
  C   -2.42459489433509     -1.72255082195280      0.78085746963099
  C   -1.35678473818502     -0.91628046209274      0.21653701120021
  C   -0.16450103463283     -1.46116058238937     -0.17299220380413
  C   0.00669829517287     -2.87122592688323     -0.42277758614224
  C   1.31538245580674     -3.09645406767821     -0.72011773009328
  C   2.05410065013127     -1.86908793467889     -0.59638753095978
  C   1.19828034903618     -0.84114619128177     -0.30403536851623
  H   2.80843935355192      2.65053935601527      0.67123429717909
  H   1.46413285300458      3.65775522679347      0.46796546352191
  H   -0.00466434840916      3.00026541301377     -1.24780857449797
  H   -2.07846335927562      3.09862170829905     -1.77407589999994
  H   -3.17200760157208      1.85502877735382     -1.49194802898878
  H   -3.81736171351742      1.27122785087281      0.72775677842539
  H   -4.37667842143165     -1.19885952090527      1.59516659282476
  H   -2.32978056223046     -2.76772484157977      1.01948949259121
  H   -0.80044920227656     -3.57881051488832     -0.50023612617764
  H   1.74167480499527     -4.04084632650015     -1.02483819028449
  H   3.12591174829100     -1.78056551147718     -0.67172291727753
