29
Coordinates from ORCA-job ./opt_b97-3c_parallel
  N   4.73033645201998      0.24562900861681     -0.76992021082901
  C   3.70277373905919     -0.28093774604456     -0.63532324871923
  C   2.48117021979319     -0.95597859153284     -0.52993163924470
  C   2.28005971129838     -2.34390775263596     -0.86163561020412
  N   1.04372874848156     -2.74231116385781     -0.69576928305738
  C   0.32870571661103     -1.62603991098027     -0.29441301691696
  C   -0.97896473137698     -1.75220186757088      0.07807834322983
  C   -1.55927627457875     -3.02346356556821      0.49279001691439
  N   -2.77269261520423     -2.87539232714790      0.95413778230609
  C   -3.09909424018786     -1.53953097506289      0.75416906540880
  C   -2.04864767852476     -0.79428649217590      0.26136467482332
  C   -2.20054072140122      0.51443625931639     -0.32722165964352
  N   -3.42053395992829      0.73829566150814     -0.86370634874656
  C   -1.27132932163251      1.55623651364309     -0.34186508754681
  C   -1.69511541203003      2.74261745081356     -0.97913687292660
  N   -2.09402889216252      3.69973165987512     -1.50912870981610
  C   -0.04492639549192      1.69223188751375      0.42291190279510
  N   0.10792493343233      2.89152250924926      1.01369128341824
  C   1.02971202967895      0.78498665349540      0.50281422667144
  C   2.11199512896159      1.23262225581201      1.29704807659236
  N   2.93644674728434      1.65250858529063      2.00197603492211
  C   1.23592918482645     -0.45051418791526     -0.17469510845466
  H   3.04557603105306     -3.00757733916780     -1.23832420418383
  H   -1.02709014830891     -3.96059389281846      0.52064831912001
  H   -4.09459360144530     -1.19183703317515      0.98620269383326
  H   -3.99886019649650     -0.04560468840910     -1.10148141286960
  H   -3.63886496611211      1.61891710012975     -1.29956078607517
  H   -0.61786037739152      3.58304059947571      0.96227592682964
  H   0.99603909137279      3.17699616262373      1.39280059586956
