30
Coordinates from ORCA-job ./opt_b97-3c_parallel
  N   -0.82647698968782     -3.69979914859104     -1.46484374636712
  C   -1.35352972482878     -2.79074919319409     -0.95739758910491
  C   -1.95614815707061     -1.71704790040622     -0.30024562503883
  C   -3.32978511398468     -1.55212753878849     -0.17972211474107
  C   -3.60911629831006     -0.28774415825897      0.38576541450088
  C   -2.42830790181043      0.40625989158099      0.54944322944335
  N   -2.32938179346195      1.55191800778417      1.30794968228761
  C   -1.64891868894665      2.57985904303101      0.97783971628315
  N   -1.05421771159957      2.88701026639891     -0.22105153490199
  C   -0.01305734323023      2.28463096242541     -0.65852769312794
  N   0.63282274059651      2.81897340529190     -1.76361535451795
  C   0.63206268097778      1.11022857251719     -0.07280916470895
  C   2.02983627227402      0.93512103338782     -0.00967393996783
  N   2.96469938267753      1.86078779382850     -0.22340382354804
  C   2.33741662541780     -0.42711289924590      0.32648156235503
  C   3.61168742516401     -0.93615340327634      0.56339390708155
  N   4.68494851351909     -1.34911870879708      0.75251107099259
  C   1.13478632677101     -1.11968789234696      0.39668812766700
  N   0.99597083268322     -2.37267642975877      0.81144391417941
  C   0.01763908059082     -0.15428316224161      0.13879860649899
  C   -1.32841030794469     -0.46920932176710      0.11718203491445
  H   -4.05996568538806     -2.27943375982234     -0.49788591094909
  H   -4.57788703571203      0.07239451620228      0.69005946836582
  H   -1.62655573918432      3.39728365292800      1.69707812596930
  H   1.00036133861450      2.14332228850470     -2.41560263870682
  H   0.10239655548419      3.55240839227191     -2.20969653225231
  H   3.93763237717190      1.60879313837486     -0.23428215326001
  H   2.69785924047969      2.76811128851673     -0.56746671561753
  H   0.13996737307151     -2.87627321273047      0.65144136080490
  H   1.82106739996625     -2.93688833871907      0.93201243806636
