27
Coordinates from ORCA-job ./opt_b97-3c_parallel
  N   5.05992021905638      1.11540563311379     -0.00271339609170
  C   4.01912476042082      0.59517673558761      0.00293367377356
  C   2.73421817601747      0.03958364902086      0.00788538385861
  C   2.38661441204587     -1.30893350296632     -0.00078690783609
  C   0.99047676048539     -1.44961917797270      0.00503673858743
  C   0.47041706197424     -2.72966377858613      0.00625113528769
  C   -0.79527708525397     -3.31416652461760      0.01265015639383
  C   -2.08642044126605     -2.82177762842394      0.00402560043100
  C   -2.68222881276529     -1.56535345892598     -0.01386390796652
  C   -2.23551030552526     -0.25387542008606     -0.01950700866079
  N   -3.16736021913743      0.72313418431665     -0.03667974189460
  C   -2.46154768665378      1.86764557515016     -0.02535469582566
  N   -3.06505568968188      3.05887046391988     -0.05191893723729
  N   -1.11533315124219      1.75457135121538     -0.00177037039277
  C   -0.87842533846704      0.41956958773433      0.00039848953352
  C   0.42006515261537     -0.06513587852748      0.01518066417809
  C   1.54242695095345      0.81993567410705      0.02053812531736
  N   1.51397317498407      2.15639504360278      0.04822354934100
  H   3.08575237876029     -2.12858621207305     -0.00881493279429
  H   1.25969481066813     -3.47473492309469      0.00328654589263
  H   -0.75402598610917     -4.39666211995777      0.02051884028648
  H   -2.82691701777430     -3.61477986373977      0.00863201096177
  H   -3.76466638228305     -1.59577001648605     -0.02473514070827
  H   -2.52686826631053      3.89770425223483      0.05493530295174
  H   -4.06473526547559      3.10111382272797      0.01669178936848
  H   0.60049885148134      2.59267498516917     -0.00069587863848
  H   2.36479673708271      2.68392305865708     -0.02896840101678
