27
Coordinates from ORCA-job ./opt_b97-3c_parallel
  N   4.52235354143775     -0.66012209759067      0.93033385815279
  C   3.42276392757653     -0.88614646097631      0.62757052769698
  C   2.10267998331569     -1.22344400244016      0.30736786294348
  C   1.61551281505428     -2.55813194701146      0.16897816904865
  N   0.32616419225260     -2.62763045985851     -0.09377017986934
  C   -0.14512583998118     -1.33557110564309     -0.08908537790477
  C   -1.47875599134262     -1.10774263745873     -0.32065583196369
  C   -2.37489772726324     -2.10557011536463     -0.87770299912728
  N   -3.60749939289749     -1.67058223884439     -0.96297278991306
  C   -3.60837944982161     -0.40534897955597     -0.38914140735177
  C   -2.35100349576522      0.00715737190703     -0.01567958069935
  C   -2.04764437517962      1.16431379909726      0.79058831135891
  N   -2.97935737842991      1.50250576423306      1.71447239322882
  N   -1.02928451594946      1.95670130010581      0.67506287922252
  C   0.04591770826590      1.98237120399506     -0.10452001207277
  N   0.23772361136112      3.14033458830388     -0.76322110325139
  C   1.08159653679803      0.99429629336635     -0.16798071917657
  C   2.31447689344298      1.48890506213367     -0.64722549253198
  N   3.26527483445168      1.97720975860216     -1.10766895978099
  C   1.00123482926218     -0.38095719965752      0.12648001147250
  H   2.21240984431421     -3.45119433175730      0.28964971511236
  H   -2.06849128593265     -3.07501835533363     -1.23549251423784
  H   -4.53312360417424      0.14253499661797     -0.28776449947710
  H   -3.61155505704200      0.79924150745766      2.04836238086600
  H   -2.77971897371615      2.27750671826680      2.32320606217391
  H   1.11293542228003      3.33812835767875     -1.21892125914794
  H   -0.37333517691789      3.90906572142637     -0.55456920717111
