30
Coordinates from ORCA-job ./opt_b97-3c_parallel
  N   -5.42165169568643     -2.13628585302842      0.60805092750959
  C   -4.40151212244789     -1.61646125025351      0.40832565661066
  C   -3.17825649984981     -0.97226825093003      0.15671567417637
  C   -3.03074805284663      0.41731946722914     -0.15538342575389
  C   -1.68711992193230      0.71852898946831     -0.26789012296021
  C   -1.24793012488816      2.00135391322148     -0.77384862582093
  N   -2.18190300681361      2.63393908376737     -1.55536731263506
  C   -0.11581205546790      2.71252141749367     -0.46139983515217
  C   0.94485518472086      2.40611676131487      0.43801703026114
  N   1.41647735061165      3.45682679046152      1.16477653206725
  N   1.66843860976876      1.31806297957798      0.55012240394645
  C   1.58208071549606      0.08526373332069      0.11343025147099
  C   2.69641387593617     -0.74854432310334     -0.03637955149632
  C   4.04474714661553     -0.42756526267504      0.10087883485238
  N   5.18690885988304     -0.22469951544580      0.20393589710917
  C   2.17077598483136     -2.06221342356491     -0.24663099294695
  N   2.89502335562836     -3.16205586637169     -0.42330084883260
  N   0.82668020494244     -2.10338611635169     -0.25205480293417
  C   0.39845178287126     -0.83647703897463     -0.08842537454709
  C   -0.95490502796085     -0.53119229744063     -0.04184646372623
  C   -1.92313460138196     -1.54911012561303      0.17872860792258
  H   -3.84943663285379      1.11107707778076     -0.24919122939718
  H   -2.81094454801758      2.05200126994042     -2.07839288011956
  H   -1.91220451289051      3.48521602790158     -2.01573827648546
  H   -0.06834820821463      3.72153631141053     -0.85584861017651
  H   2.20532510370429      3.28102907612247      1.76360784185634
  H   0.79849904165065      4.20725809434848      1.41220663658433
  H   2.42932644263204     -4.04511971520277     -0.53553027501735
  H   3.89868198469300     -3.13011086357274     -0.42546982762013
  H   -1.68664051583277     -2.57761221473120      0.38341765065606
