27
Coordinates from ORCA-job ./opt_b97-3c_parallel
  N   4.43316908018324      0.32398188862064     -0.63538120206752
  C   3.31910726549452      0.20176811169357     -0.32222280274497
  C   1.97657060677625     -0.09898675093510      0.00086584547041
  C   1.61868426130375     -1.47418550270360     -0.12290921663030
  N   2.45211077629465     -2.27204685364271     -0.81920936629577
  N   0.63746105109345     -2.12818295474016      0.49995411472918
  C   -0.65620925834536     -2.04005329202641      0.51803840816441
  N   -1.30304300523062     -3.04729549832262      1.17290941522926
  C   -1.50487478072197     -1.05732177111765     -0.09711629550710
  C   -2.82438105649038     -1.27357376864377     -0.49279134699174
  N   -3.52089933415265     -0.14294668293285     -0.77438137710356
  C   -2.68488391218646      0.85861262814274     -0.49755005774694
  N   -2.99625863104631      2.14072363676575     -0.62421533366116
  C   -1.34611788549516      0.37011907077632     -0.07940215790835
  C   -0.31147900009197      1.20620645879158      0.25262239220452
  N   -0.52013789823322      2.56010705931843      0.41751745815134
  C   0.69132178647477      3.05668036491494      0.62851340365577
  N   1.72734346637687      2.18739797994396      0.58514722677182
  C   1.16252207711415      0.99347196542235      0.35637429633096
  H   2.34098570688472     -3.26487619215126     -0.72291577416769
  H   3.32679561591328     -1.91984260455855     -1.17122044628342
  H   -2.20517825902886     -2.85580679288666      1.56902194693786
  H   -0.72388917676206     -3.70418832989310      1.66764427468105
  H   -3.30355763320942     -2.23692941297705     -0.59727751324520
  H   -2.31477728668890      2.81604649124572     -0.28154753744817
  H   -3.92560813496668      2.39611097874815     -0.90963064678191
  H   0.84985749843925      4.10448140844726      0.84023650525791
