28
Coordinates from ORCA-job ./opt_b97-3c_parallel
  N   -5.39770719378922      1.06763610044989     -0.13429848341997
  C   -4.30769563536277      0.67918443392783     -0.02877576871811
  C   -2.99542529667900      0.19386931285276      0.10413989251853
  C   -2.63438109574157     -1.03464903831088      0.70280816557861
  C   -1.25931556350486     -1.21820234954712      0.58134768345484
  C   -0.68950881968564     -2.41807556011564      1.05311344540909
  C   0.46322400164416     -3.09457799489554      0.79794613379423
  C   1.51267754886113     -2.75206671975027     -0.10912182475889
  N   2.07587103910807     -3.78727067541237     -0.78028696681799
  N   2.10286045447837     -1.60063251410911     -0.28843641812258
  C   1.89216312676814     -0.33345381967662     -0.08240276939249
  N   2.95450795322145      0.49403912313495     -0.01418711094600
  C   2.46202395102864      1.73765792295131     -0.07881220771629
  N   3.24922553794155      2.80397566080248     -0.00852045944289
  C   1.03145341946451      1.78202331796436     -0.21367517411313
  C   0.32909887568983      2.98502188635404     -0.23822388797535
  N   -0.16061251649087      4.04214250037467     -0.26209816955370
  C   0.59403403483121      0.45717137656773     -0.13092631894077
  C   -0.72453198255813      0.00277817938736     -0.05985330139511
  C   -1.83240899520985      0.83001602152168     -0.33430807071599
  H   -3.32199388978075     -1.73798789915350      1.14384524391253
  H   -1.37790567605697     -2.97583581811744      1.68001711185504
  H   0.54352212914952     -4.08680228437989      1.22420965054761
  H   1.57217135390400     -4.64621585484928     -0.90044023738266
  H   2.83263880070679     -3.58576595982257     -1.41061414875184
  H   2.87162954996384      3.73356445059825     -0.06257706397609
  H   4.23660364103679      2.67984496460767      0.12791479356652
  H   -1.79990684593738      1.79999863634578     -0.79709121099664
