28
Coordinates from ORCA-job ./opt_b97-3c_parallel
  N   -2.54726831991760     -3.00347365745697     -0.71339214718897
  C   -2.17900048510222     -1.92530029737516     -0.46119410208413
  C   -1.89452830050183     -0.59715253118479     -0.15782792674237
  C   -2.94588756701374      0.31984879382228      0.04853924009591
  N   -4.24580378316293      0.01109887855075      0.02616069957041
  C   -2.39965761620737      1.60705896682605      0.26759420290283
  C   -1.02286160949929      1.55501442935200      0.16149349287207
  C   -0.28665765735877      2.75199685817928      0.23401582638258
  C   0.99673178568246      3.15079708071542     -0.05721490812545
  C   2.19595727164160      2.51485619529787     -0.39249792208265
  C   2.59963843366393      1.19968420701764     -0.33059952552208
  C   1.98889939093482     -0.01265602443361     -0.02430733635400
  C   2.75803956516941     -1.18129418306468      0.11838869424162
  N   4.11877245429273     -1.31048187408288      0.10814165617791
  N   1.99555437123409     -2.30840609178570      0.24168639357947
  C   0.73455030357311     -1.92183593151710      0.15972639272253
  C   0.58429063049997     -0.50486315277542      0.01798123932783
  C   -0.65068807858205      0.10426504519286     -0.04317887568527
  H   -4.54188848962722     -0.92492553581211     -0.19278093173510
  H   -4.95092538427604      0.71698566938262      0.12038263506584
  H   -2.97484022323769      2.50489068473969      0.43037224512417
  H   -0.93527624694659      3.58823189723290      0.47335852509793
  H   1.10163057202419      4.23089053107070     -0.02851429326927
  H   2.98842346774931      3.20372726854249     -0.65858387785255
  H   3.65492973600883      1.08343219472950     -0.56256592275175
  H   4.43036041471402     -2.22876250709718      0.37837634748881
  H   4.65513631332047     -0.56962517929400      0.52435398594651
  H   -0.05738840557556     -2.64189124877219      0.26974302769720
