30
Coordinates from ORCA-job ./opt_b97-3c_parallel
  N   -5.01366666845370      0.04383337877778     -0.20566368547530
  C   -3.90517243823698     -0.29138496551600     -0.10031924952482
  C   -2.57053460614020     -0.69715091085066      0.03127574656895
  C   -2.12189988436588     -2.01729076690919      0.29898615651983
  C   -0.73934635629005     -2.03821757842481      0.26022835512294
  C   0.03197121924677     -3.15184001832587      0.60029823289955
  N   0.69949310378251     -4.07966573616825      0.83297904277709
  C   -0.26814805045562     -0.67893792871236      0.02474693753655
  C   1.04368884748138     -0.23785889651775     -0.08858111061494
  C   2.22420156832548     -1.00703670996085     -0.63429865522503
  N   2.16447097785490     -2.16847109945084     -1.26447566252939
  N   3.34946820755078     -0.31259224853267     -0.57263056531419
  C   2.99361507212904      0.87173112626734     -0.00006976409663
  N   3.93554755683764      1.76645711869393      0.29218051202604
  C   1.60259277454642      0.99844603775248      0.27096139239120
  C   1.04442168866650      2.01588523034505      1.13085476066947
  C   -0.14438981577679      2.61116297109838      1.01786413082986
  C   -1.03210621943043      2.47007793015371     -0.15711120604199
  N   -1.27067324420365      3.63933408896478     -0.80784853579823
  N   -1.58865167770427      1.40704123265412     -0.61207076949417
  C   -1.45739132305143      0.14480020527071     -0.11530144243995
  H   -2.75492856168282     -2.85775724159368      0.52862641525710
  H   1.38276582719736     -2.78942170865870     -1.14086825599860
  H   3.03413680878388     -2.58169334468132     -1.55830797135156
  H   4.89303650536805      1.55932313083680      0.06991067416726
  H   3.69891987124116      2.69221103632138      0.59622173262371
  H   1.66006862494438      2.30405296858948      1.98203628124046
  H   -0.45102253907588      3.33243999914352      1.76684239644099
  H   -1.02436678372631      4.51167609681154     -0.38032702100607
  H   -2.00782703516190      3.64595953362186     -1.49243881816056
