31
Coordinates from ORCA-job ./opt_b97-3c_parallel
  N   1.35873248973221      4.96275080447979     -0.71488938054987
  C   1.21824888446088      3.82932669031046     -0.50072801124965
  C   1.00888581703051      2.44413674453372     -0.23940804220086
  C   2.18067014464612      1.72033351858398     -0.04554092891556
  C   2.52915505271412      0.38909761139609      0.18992874715338
  C   3.92211718085104      0.21941512970897      0.44691682060884
  N   5.06093877482982      0.15653841934561      0.66292375921743
  C   1.81167221831831     -0.82916497789445      0.11406797823083
  N   2.50587577868434     -1.95750924403687      0.18983142390495
  C   1.59151756741378     -2.95286750281660     -0.01434064870057
  N   1.98984845337542     -4.22137405004082     -0.01757055895057
  N   0.32876507981779     -2.57103012654705     -0.20193933375748
  C   0.35771420276228     -1.20178899491095     -0.10217196897096
  C   -0.81061344882381     -0.48155115173705     -0.09219208773186
  C   -2.09370834228808     -1.14275945939641     -0.13341130342985
  N   -2.29913349237428     -2.44607897660449     -0.27094197941302
  C   -3.11452142843959     -0.17922522836403      0.02670338446271
  C   -4.48079952093188     -0.45533144105441      0.09642858794947
  N   -5.62061813374007     -0.68467109854545      0.15789408179516
  C   -2.52704420822737      1.09331722160127      0.14512699376219
  N   -3.23771811447702      2.22472947874508      0.29158429575328
  C   -1.10264864573999      0.97536959512445      0.02447748125299
  C   -0.36164338123000      2.11100545899650     -0.11913630875949
  H   3.05546011672451      2.35775634288450     -0.07073416501239
  H   2.96501054515166     -4.42667287008452      0.10246622670773
  H   1.34463989660503     -4.96341048883738     -0.21400414789863
  H   -1.46602470277296     -3.03128273918969     -0.30656495879154
  H   -3.22771464004123     -2.82727794081957     -0.22065006229918
  H   -4.23035174126743      2.15861091096418      0.43314360964561
  H   -2.80418375906665      3.05891368816324      0.64058924081454
  H   -0.96758789029746      3.00803993334199     -0.16765626202768
