28
Coordinates from ORCA-job ./opt_b97-3c_parallel
  N   -4.04332369635866      0.68764999177128      0.14157487764543
  C   -2.92512295699232      1.00281471787336      0.03670427469592
  C   -1.59561210454435      1.40286603581743     -0.09535173991051
  C   -1.19744874724404      2.76725249542684      0.09498271043580
  C   0.16100704242769      2.87237910691254      0.15887628894641
  C   0.72412688839306      1.57323477267495      0.01135518536270
  N   1.99701897795002      1.42483412445197     -0.17543504729833
  C   2.90868235783736      0.46098176219380     -0.12469383601783
  N   4.06285881001110      0.77547617898048     -0.79194670283067
  C   2.92261031475178     -0.68492100033918      0.68164470402771
  C   1.88280601221359     -1.52273883270382      1.04978569223508
  C   0.56566028868112     -1.64898432771437      0.65105565344083
  C   -0.10603527628273     -2.86950867014905      0.85027200449967
  C   -1.26884599256960     -2.90297244565717      0.09493997361232
  C   -1.43481872758187     -1.66199384732885     -0.54730306138655
  N   -2.38948387406034     -1.40335662208340     -1.48915312348577
  C   -0.36853386930274     -0.79853928902410     -0.15404592556585
  C   -0.44024793943173      0.58874759094156     -0.11276482237167
  H   -1.90508053916816      3.57581617842925      0.19940961683143
  H   0.74821141697708      3.76839122790840      0.26257538398058
  H   4.64985073296445      0.02801009464048     -1.11409515169477
  H   4.04130002843787      1.60917796716325     -1.35336257010372
  H   3.91011319957656     -1.00100339477019      0.99512214880694
  H   2.20732924674116     -2.34957153697256      1.67377261030824
  H   0.30014065844063     -3.69486207705933      1.41479030660657
  H   -1.92070915504928     -3.75437030974498     -0.02958311949397
  H   -2.47560717616951     -0.44513889250871     -1.77894732069027
  H   -3.29578429114891     -1.81026376532902     -1.32272128688595
