30
Coordinates from ORCA-job ./opt_b97-3c_parallel
  N   3.89386842788068     -2.22420366903006      0.92895864309333
  C   2.86707970150634     -1.73429353289007      0.68262968547017
  C   1.57510768826617     -1.27150310821063      0.34240371509327
  C   0.70228249266723     -2.32103624561344     -0.20105050915781
  N   1.32963293103187     -3.21945527729137     -0.99983297575831
  N   -0.55046582491942     -2.55877579114599      0.03631610304315
  C   -1.54618354674781     -1.82096416240355      0.51647056664540
  C   -1.86258793984121     -0.50504585010151      0.33687063114062
  C   -3.22699339893063     -0.03632150258983      0.41261327016085
  N   -4.29088737546411     -0.66303781982893      0.96671839462534
  N   -3.38807409244077      1.15099651711428     -0.17231052908968
  C   -2.15267425460693      1.54423171889024     -0.57597252150509
  N   -2.02294612150305      2.76052312866568     -1.16550655820509
  C   -1.12654856567674      0.61787028871727     -0.25931143439695
  C   0.22512401147494      0.96047901319001     -0.12383874063694
  C   0.77853298191242      2.23249720839790     -0.21608995413462
  C   2.09561925882101      2.13319391305785      0.29880987562315
  N   2.96146714055013      3.14151939662665      0.46801609185875
  N   2.45669677372642      0.88309913522853      0.63073219853583
  C   1.39424991904005      0.10178395715427      0.33763093627584
  H   0.84196489445775     -4.07702448031759     -1.19074524554308
  H   2.33351881646551     -3.23972460186220     -1.03625479986152
  H   -2.30197690577407     -2.43573334523262      1.00239624171063
  H   -4.23863079704507     -1.64559887447008      1.15923040820663
  H   -5.19385473684305     -0.32333269658863      0.68357785141008
  H   -1.26088276598254      2.87179122502044     -1.81278797085358
  H   -2.89402991208033      3.16484383541233     -1.46778483573163
  H   0.25526953073547      3.15686225259433     -0.38353014534857
  H   2.68878704176906      4.09391210808022      0.31933592725401
  H   3.81925074385183      2.95636895281543      0.95696738276814
