28
Coordinates from ORCA-job ./opt_b97-3c_parallel
  N   -0.12012175906719     -3.69448192613466      0.76483236806319
  C   -0.00101924269898     -2.43993870098453      0.23137685490151
  C   -1.10417346887323     -2.05464174438561     -0.59880757647674
  C   -1.80106632029204     -0.87394851228763     -0.65133406790420
  N   -3.02333759113319     -0.91254768367985     -1.30967911691633
  C   -1.50178116854556      0.38999594065744     -0.03847264053516
  C   -2.44781495468153      1.38433470927628      0.24356353097346
  N   -3.81510414772729      1.34407206371614      0.18679414808942
  N   -1.86902127185880      2.59073375051615      0.59043585134042
  C   -0.57126333596085      2.41329959353971      0.47598169642613
  C   -0.22637189692618      1.06458072174045      0.12830196324366
  C   1.08973303855458      0.66494678912296      0.03159724095196
  N   2.11621091491137      1.53725723366134     -0.09955338867023
  C   3.19588588741371      0.74613331545746     -0.15262188281488
  N   4.42621380320364      1.23210687354630     -0.32939577552250
  N   3.00785165516569     -0.60396218126294     -0.01227808253992
  C   1.69087198970246     -0.72555237608122      0.11548459381053
  N   1.15757176753604     -1.88400871072919      0.46699614595814
  H   -1.03565919781098     -4.04695344568282      0.97706472329857
  H   0.63700227791324     -3.99278215788017      1.35674872379947
  H   -1.56812364164429     -2.89532402114102     -1.10360488915487
  H   -3.18123197217422     -1.72536963752199     -1.88106937221283
  H   -3.29991943402730     -0.05595735092875     -1.76125502658538
  H   -4.24699989224866      0.44438674470176      0.31486586044208
  H   -4.25368731581924      2.10036621045503      0.68625892320776
  H   0.13997286218465      3.19195700239562      0.70140703840706
  H   4.55675707169819      2.21558978619476     -0.47557181670719
  H   5.19749642490502      0.60004269451892     -0.43208076997333
