26
Coordinates from ORCA-job ./opt_b97-3c_parallel
  N   -0.50648936318916     -4.44988449323701      1.16013583120419
  C   -0.37812442924760     -3.35605563586356      0.79198549096227
  C   -0.21916255735820     -2.01413351188647      0.33696635785084
  C   1.10443706042666     -1.73758356644023     -0.15526316636094
  C   1.84996626349419     -0.61084544567265     -0.32470849725805
  C   3.14667179470679     -0.84582756970015     -0.87709607706997
  N   4.17219621561925     -1.09963849919512     -1.35561577568673
  C   1.62245770738527      0.77308613039464      0.05298017886672
  N   2.67388796417764      1.54241302488508      0.17544772631102
  C   2.22385939351445      2.83752992430144      0.46452137878826
  C   0.87621527039592      2.92459037548640      0.43511488582446
  C   0.38355310720972      1.58844230865305      0.17865066041931
  C   -0.93086571499493      1.27828669695831     -0.01713479773289
  C   -1.94556939844961      2.32487578963137     -0.21408170695206
  N   -3.13609457699007      1.84779683861332     -0.39548376345575
  C   -3.00620276339915      0.45685532676353     -0.28238524812546
  N   -4.12375453980781     -0.26959908087987     -0.37491403889276
  C   -1.68487457376609      0.04432118034033     -0.06758881086417
  C   -1.37395886945105     -1.27803400852205      0.30932972072149
  H   1.63504225876922     -2.64516347998796     -0.41440550488203
  H   2.94508768898454      3.61108508892753      0.67351176904400
  H   0.27803236208909      3.79795549282021      0.62787064630072
  H   -1.74999672570850      3.38391060871360     -0.27777400333537
  H   -4.10213479270715     -1.26612266413114     -0.48561082354386
  H   -4.98740709781092      0.20783563336092     -0.56174672523273
  H   -2.24026134399247     -1.84846327683357      0.63067610799949
