30
Coordinates from ORCA-job ./opt_b97-3c_parallel
  N   -1.26581055888436      4.48533124867398      1.06618911257779
  C   -0.96709220724340      3.42404048623885      0.69533886823519
  C   -0.62580670601527      2.14419523174102      0.19936552018022
  C   0.64629035777926      1.70591196107942      0.41579233900627
  C   1.34104700457146      0.52550310208569      0.06391206844251
  C   2.74002181539668      0.51619773774120      0.04194150324865
  N   3.58153697254263      1.55977586329367      0.11501342173639
  C   3.20642010651842     -0.86135391794101     -0.04013505268359
  C   4.56023920802632     -1.21020269464615     -0.14999275736873
  N   5.70050854230629     -1.41888981557120     -0.23348697878907
  C   2.11508758507600     -1.67861632244962     -0.01618950187982
  C   0.91568929836403     -0.87128123867961      0.02304361996512
  C   -0.32314334705043     -1.44885281145726      0.11523413508156
  C   -0.55654942356650     -2.81558371256018      0.50976191240472
  C   -1.89388015044213     -3.00737195123237      0.63302788708627
  C   -2.59964723526372     -1.80385908700649      0.23236898073301
  C   -3.98552104717969     -1.67475271923479      0.10396806952585
  N   -5.14007356712811     -1.57888241447554     -0.00306906924210
  C   -1.67208472930561     -0.82874311744385     -0.09558871222211
  N   -2.02042192934615      0.29524130967702     -0.73405150219362
  C   -1.62639027183467      1.51878999690856     -0.69315500734487
  N   -2.20811148969461      2.37610888116504     -1.56732127433926
  H   1.25972554765349      2.42592640527609      0.95188888808939
  H   4.57334984331764      1.40645660151269      0.06145686511614
  H   3.26371576315548      2.49249671792759     -0.07210709903474
  H   2.13749815217967     -2.75105025234891     -0.09037109269324
  H   0.20684377725153     -3.52073748618482      0.78872880004033
  H   -2.38368451051107     -3.90275790835445      0.98111998112749
  H   -2.08590296683337      3.36762692695952     -1.46656387725559
  H   -3.03607537193994      2.05449440770602     -2.03899919344999
