29
Coordinates from ORCA-job ./opt_b97-3c_parallel
  N   -4.10947982119714     -1.35767499579971      1.00570669417587
  C   -3.10006680204808     -0.99235926631126      0.55579540663532
  C   -1.81598586975568     -0.68603339706398      0.05288734787058
  C   -0.92685407970801     -1.76699927746099     -0.03293190619045
  N   -1.23467645523923     -2.93480444652468      0.58731626884387
  N   0.17427498064814     -1.84669714858185     -0.80922078966108
  C   1.29354948448739     -1.20829581821259     -0.76734135435198
  N   2.29569080775860     -1.70776409869535     -1.57806667974655
  C   1.66819544235087     -0.08917660671625      0.06059740567832
  C   2.94975476942837      0.13351559049743      0.56981418216698
  N   4.02521483289950     -0.69571281051785      0.53641133321076
  C   3.01537609362547      1.47604545671130      1.10461525037227
  C   1.83344227632313      2.08963546176598      0.85560943554584
  C   0.92952348089688      1.14612780582002      0.21875104872241
  C   -0.34413790522047      1.49721517671606     -0.16535694779608
  C   -0.81057893168406      2.83524746449104     -0.33138615352000
  C   -2.14173791790351      2.74703377303275     -0.62525293951298
  N   -2.62256327929748      1.45407685284717     -0.57370187212303
  C   -1.58881938632401      0.66541817943549     -0.34116188818988
  H   -2.15880952345023     -3.05331457035341      0.97005259067798
  H   -0.77984057711989     -3.75965276275430      0.23930579877767
  H   1.97961172695935     -2.40782046842909     -2.23046270418264
  H   2.92395918006516     -1.02751541028481     -1.97337008892286
  H   3.87509809094626     -1.65855904899039      0.28745287749728
  H   4.77542663075043     -0.52237016484129      1.18090890736516
  H   3.87422468984530      1.89525839815676      1.60683342135976
  H   1.55031037289062      3.08322704739597      1.15826717635127
  H   -0.19821628261557      3.72063508640787     -0.35339180070437
  H   -2.80930344561206      3.54986693335877     -0.90184767455005
