23
Coordinates from ORCA-job ./opt_b97-3c_parallel
  N   4.68793286928620      0.36674898310306      0.26826509812210
  C   3.60081703051562     -0.03726382426645      0.18809984733635
  C   2.31012412793434     -0.57029619224889      0.09398953185747
  C   1.99446820973564     -1.97346431077000      0.09387604233870
  C   0.65772559895830     -2.14583018334328     -0.08614505129207
  C   0.01590252245125     -0.86340634725946     -0.14003481927169
  C   -1.33959002008783     -0.70619179760018     -0.10439993704916
  C   -2.26522196433745     -1.82024542006155     -0.13492440913891
  N   -3.51549370733934     -1.44473234618042     -0.01913417513331
  C   -3.50051397479037     -0.07305630865861      0.12295242582159
  C   -2.23268563693243      0.46964944501268      0.06509748062930
  C   -2.03222961055689      1.85402468003126      0.18681456632846
  C   -0.96117185814405      2.68998237047728      0.03455694157007
  C   0.40403688916371      2.48998463576821     -0.27652696440855
  N   1.22286104267240      1.48049437923433     -0.25128061749365
  C   1.14230433496704      0.16873727063780     -0.08167262104340
  H   2.72799198352712     -2.75527864816206      0.21174404398398
  H   0.15393808609980     -3.09524220809511     -0.12241590925679
  H   -2.00668806889657     -2.86032068609622     -0.25406825075672
  H   -4.42447835945480      0.46846335293483      0.25723783461887
  H   -2.96145505387775      2.37737812953361      0.38964948509588
  H   -1.20661040443498      3.74277650507473      0.11163815484824
  H   0.90841495303931      3.41789198683351     -0.54233661250673
