29
Coordinates from ORCA-job ./opt_b97-3c_parallel
  N   -5.83989821080743     -1.78925181054073     -0.13177073666703
  C   -4.75973078445493     -1.36286435714784     -0.11855992556656
  C   -3.45389641918503     -0.83994906214461     -0.10422199958904
  C   -3.10673711620501      0.51205082222656     -0.33637207083245
  C   -1.72622033750134      0.66820194852356     -0.19541924938080
  C   -1.17847240304920      1.94384228752508     -0.39111392342428
  C   0.01823654931694      2.56198750450178     -0.10988764232534
  C   0.08208156048559      3.94993673641013     -0.38912089053886
  N   0.16203148487354      5.09292031703295     -0.58756078189237
  C   1.17389613245122      2.02565129510364      0.59523354055761
  N   1.83257558411382      2.89158016548192      1.39072127545723
  N   1.71568763000664      0.84451115456366      0.50368858857110
  C   1.42289181087719     -0.37129415379896      0.12321932481089
  C   2.40544971304712     -1.33500898075698     -0.12705616617484
  C   3.78931012041873     -1.17403185931191     -0.12858244702561
  N   4.95114207757433     -1.10208922517651     -0.13707511081544
  C   1.71234604793767     -2.58410290629988     -0.19988300238429
  N   2.27870319187557     -3.76983761869777     -0.37571708280186
  N   0.37863232312981     -2.46075929371328     -0.06288229487842
  C   0.11940017071505     -1.14929691030309      0.07238943649948
  C   -1.18533662525784     -0.67299217169213      0.08445941878886
  C   -2.28390159765525     -1.55961513647487      0.12206615026311
  H   -3.80252467997250      1.30154344340007     -0.57005959119899
  H   -1.90629100222444      2.63364048998410     -0.80287022297754
  H   2.73450763542954      2.62038512079043      1.74119142393033
  H   1.55380774849033      3.85345711787222      1.46694535045436
  H   1.70459679380490     -4.59476098842164     -0.38454443744564
  H   3.27164460993262     -3.86062829581455     -0.49879729845898
  H   -2.20676997596652     -2.62070063512184      0.27868165664592
