24
Coordinates from ORCA-job ./opt_b97-3c_parallel
  N   5.02128515673895     -1.65844205495593     -0.10827880215607
  C   3.97928265305612     -1.14577645546594     -0.07280068448070
  C   2.72285922172546     -0.51605475067987     -0.02522725959384
  C   2.49077845767839      0.83138388574539      0.37731275637872
  C   1.14232590089887      1.11445767157753      0.24795433270388
  C   0.61273298914174      2.35998492048552      0.68457359995907
  N   -0.42761096417733      3.01879632004810      0.30114366515396
  C   -1.40419612354689      2.70437708935128     -0.55891646537300
  N   -2.20955336376823      1.69469208072382     -0.61311727719223
  C   -2.09539224277486      0.43949413197561     -0.16996760027539
  C   -3.15033359612313     -0.39812478777979      0.08392064235949
  C   -2.59924165670491     -1.71237855461243      0.11911231098969
  N   -3.27393651626290     -2.84624932419012      0.29679540000233
  N   -1.26206704302917     -1.75014870037057     -0.06872248548876
  C   -0.86556119799967     -0.47133008138371     -0.17288668350012
  C   0.48142161597811     -0.12734245076517     -0.18659324424793
  C   1.50002079469345     -1.10165590022974     -0.32349370123497
  H   3.24830081441773      1.51570465723051      0.72397713590761
  H   1.22676103179427      2.87989929937707      1.41794119137790
  H   -1.64919775755538      3.52097294904524     -1.23614192047430
  H   -4.19151209259348     -0.12472124932752      0.10058067895931
  H   -2.77309476038840     -3.71774643415307      0.28768428404055
  H   -4.25336227207011     -2.85156410524286      0.51029655504794
  H   1.32972079277145     -2.12842702600336     -0.59473995446301
