28
Coordinates from ORCA-job ./opt_b97-3c_parallel
  N   3.94732627991923      0.63978463696823     -0.35678684198830
  C   2.59183086909341      0.40926028467874     -0.18353986226913
  C   1.77890295474606      1.50986406099943     -0.44107872245564
  C   0.46026556899664      1.84139582693143     -0.14013734699967
  C   0.00232501628173      3.16013309592592     -0.18443888198180
  C   -1.35386683658590      3.13709356489321      0.15063065756637
  N   -1.82695594509434      1.90831153866309      0.36517267999515
  C   -0.76433435873067      1.04358833067555      0.18089318242273
  C   -0.98922740967654     -0.30668994824266      0.09930083562234
  C   -2.35957926219148     -0.86445263478763     -0.04091176651376
  N   -3.47687088480754     -0.14759323611006      0.04330392321566
  N   -2.34396215600350     -2.16520983194470     -0.31492764582687
  C   -1.03356719618013     -2.52691560464210     -0.28032912404575
  C   -0.14381738235370     -1.48379083457418     -0.03383947491507
  C   1.22292059923100     -1.71259483658903      0.32438902056592
  N   1.48777630002470     -3.02285338815893      0.66872682211199
  C   2.32199306954836     -0.87646798794934      0.33732039335015
  H   4.51504616892456     -0.15009178049582     -0.60939091847015
  H   4.20835206049813      1.48911783427636     -0.82565774650752
  H   2.32825181151618      2.35878659007544     -0.83810228020144
  H   0.60426375893636      4.03022238176896     -0.39065779288621
  H   -2.00710253151578      3.99402723893208      0.25009183980564
  H   -3.35908445267699      0.85325243062177      0.20476823275487
  H   -4.35044816315320     -0.57858898514595     -0.20310982873611
  H   -0.77117649076593     -3.55933302509459     -0.45910932717586
  H   2.40200299865447     -3.22468550386710      1.03365176025548
  H   0.74487176827157     -3.53145451113778      1.11589474889739
  H   3.21756738449350     -1.34873886657096      0.72902372081003
