31
Coordinates from ORCA-job ./opt_b97-3c_parallel
  N   3.65598063352753      3.79875414478020      0.61908386377275
  C   2.82117726301517      3.00855765063820      0.44099596717674
  C   1.81736102820680      2.02633677735251      0.22012283654624
  C   0.52766501368569      2.53694787738230      0.06467937388537
  C   -0.72935055852907      2.00288739842774     -0.13821284132402
  C   -1.29882963742191      0.73239729844520     -0.10308029941078
  C   -2.68966082253340      0.57428400939952     -0.19980488821092
  C   -3.66793084314297      1.54921281236677     -0.37212886828890
  N   -4.53137781803305      2.31958451669140     -0.51353330617822
  C   -2.97008172706117     -0.81443443133101      0.01502989661834
  N   -4.19607391233577     -1.34851855995356      0.01549357318446
  N   -1.87146038810459     -1.52818769046484      0.20085922563191
  C   -0.78921738615005     -0.66687607602830      0.10105536157800
  C   0.48150314964944     -1.17853227723067      0.11798434770168
  C   0.72851459570644     -2.60834117494125      0.17392815184806
  N   -0.20201894365172     -3.55010174094217      0.37273401677699
  C   2.08882015863891     -2.85084704656223     -0.01921258350059
  C   2.75621603797812     -1.63864227800815     -0.16792082976484
  N   4.10096793756052     -1.52569806292193     -0.33564458313874
  C   1.83388512119174     -0.54825552880034     -0.03471657952884
  C   2.33295088892335      0.71559011469871      0.09413629104268
  H   0.51028384259631      3.62013286552398      0.09232096705226
  H   -1.47898410856410      2.77227434534724     -0.28253131316315
  H   -4.31942915588261     -2.30453380773326      0.29433252890648
  H   -5.00521305775775     -0.75559734485930     -0.02707959836978
  H   -1.16647602751658     -3.22604610230960      0.34141086047299
  H   0.02752159812571     -4.51527961096203      0.22045878190902
  H   2.54556989798123     -3.82866654418533     -0.05647613960232
  H   4.60358506213243     -2.36350934255717     -0.56701264539717
  H   4.45879331219617     -0.70475828540585     -0.79001262129375
  H   3.41625356986918      0.73613857334323      0.12185183646809
