25
Coordinates from ORCA-job ./opt_b97-3c_parallel
  N   0.35572919924937      3.35761634942028     -1.02567764096358
  C   0.18291426540100      2.21240789743171     -0.30703011586919
  C   1.42444632452943      1.58306458205313      0.08597480156266
  C   1.77233624129524      0.28508754171698      0.22895196569487
  N   3.11656915145345      0.02176158548721      0.48354289962113
  C   3.24492392127349     -1.28140443851752      0.32882771316859
  C   2.03525437823069     -1.95244612670572      0.00128703594635
  C   1.03903485328840     -1.00126719116309     -0.03711175569265
  C   -0.33925245147805     -1.23928435678731     -0.25253505454534
  C   -0.87770949691335     -2.47834341950025     -0.63774230373500
  N   -2.22213135641034     -2.52226074806095     -0.54250887954345
  C   -2.59911507275837     -1.33367215645453     -0.04103092396221
  C   -1.50425291884614     -0.46706845646270      0.14383938259861
  C   -1.64754760944406      0.87437300801370      0.55413028452357
  N   -2.63550173908312      1.17219774939323      1.42451001835548
  N   -1.03201060639645      1.93881080000209      0.04335051262279
  H   1.21720984506933      3.49520012029305     -1.52159196424739
  H   -0.46751960328826      3.78189317352584     -1.41666684498426
  H   2.25321765822794      2.27105931325509      0.20766288701856
  H   4.20903116573429     -1.75424797712696      0.46990514660177
  H   1.91319382504113     -3.01630079035585     -0.11294514554548
  H   -0.32367654243707     -3.33939599853632     -0.97938055165783
  H   -3.64614622646225     -1.08452396601718      0.06404828753012
  H   -3.19812895336281      0.43796606414530      1.81183081369116
  H   -2.95398596481344      2.12181120015087      1.50128997801068
