24
Coordinates from ORCA-job ./opt_b97-3c_parallel
  N   3.90330843033608      1.00538988275093     -0.12724809924854
  C   2.70724413763049      0.41901126330850     -0.04915136428426
  N   2.57411392450057     -0.91599783017024     -0.18193012270913
  C   1.25043830533623     -1.13541515312809     -0.04481784815732
  C   0.78723292566896     -2.42771106388309      0.11497419731857
  C   -0.46438381948553     -2.95084860233638      0.48098336616941
  N   -1.70155845579879     -2.59542580878534      0.27858350162741
  C   -2.29641301776201     -1.50872184132637     -0.18931881700406
  C   -1.97796575238505     -0.17141665316389     -0.11999763157269
  C   -2.95716638747311      0.82467463775840     -0.32608512726341
  N   -2.50146499579248      2.06672041100055     -0.16924198188301
  C   -1.17637389403630      1.94903612010404      0.11287125912810
  N   -0.40723932322962      3.02834809280754      0.28752932173946
  C   -0.74476328073439      0.58202541491026      0.16354013412979
  C   0.58538506339229      0.21852795647291      0.12027864664717
  N   1.57854436331126      1.13864413748159      0.15333417217519
  H   3.99584852215143      1.98701466521491      0.05263254969791
  H   4.72403007032081      0.43547173427371     -0.21281462798253
  H   1.59234194527093     -3.15100401653361      0.15856800867238
  H   -0.38616597207972     -3.90145136685703      1.00822546228178
  H   -3.27899156444845     -1.71662990321727     -0.60996198525299
  H   -3.99897928032225      0.64230753700420     -0.54939337403739
  H   -0.78773777687321      3.91940875272161      0.02049205095893
  H   0.59343922310195      2.86583315859196      0.27910495754904
