27
Coordinates from ORCA-job ./opt_b97-3c_parallel
  N   -4.50465430323611      1.04004150315112     -0.61819914688522
  C   -3.29388943608700      0.55969861987415     -0.31212340147461
  C   -2.13559838727472      1.35054403980470     -0.03502436569109
  C   -1.09530725107237      0.47292759034034      0.13298055541059
  C   0.26777277646847      0.82032944206632      0.27361309660775
  C   0.66629171108819      2.13971194092218      0.49453935780126
  N   1.99094325004258      2.34188325896373      0.32713768324695
  C   2.49838408014127      1.16822843659177     -0.06357071220574
  N   3.85977500524007      1.06585028634835     -0.32303450731839
  C   1.50976317018258      0.13418265791421     -0.11674897542654
  C   1.81675679148718     -1.20176521819922     -0.39175928679718
  N   3.01873622446710     -1.47614762948895     -0.99375871639820
  C   1.15085902652833     -2.36567366591814      0.09334865494266
  C   -0.12077251180659     -2.63082173019026      0.51710201493192
  N   -1.31445943345552     -2.08657048685954      0.29757534346059
  C   -1.76123493157268     -0.90290053043362      0.02573838843120
  N   -3.07489566825445     -0.75848862981096     -0.29201837483769
  H   -4.72480517102964      2.01076502091451     -0.50090428188708
  H   -5.25740556846280      0.38831672791302     -0.75294312668436
  H   -2.08293683764586      2.42489619319986     -0.09543112961728
  H   0.02557260164125      2.96152752224077      0.77488252006176
  H   4.29943051893123      0.25301604785949      0.08681217537280
  H   4.32421655010774      1.91129083119477     -0.02248439554177
  H   3.13600593880020     -2.40394255673599     -1.35984842063336
  H   3.44533382316196     -0.74614044547346     -1.54226647096639
  H   1.82298605517188     -3.20913043991796      0.21644752041423
  H   -0.21040314266463     -3.58667390546972      1.03174392508412
