32
Coordinates from ORCA-job ./opt_b97-3c_parallel
  N   3.19456908451243     -3.05285016963828      0.84529183026946
  C   2.07040304565385     -2.76509197288455      0.72073240974911
  C   0.73855781311121     -2.41001091463597      0.49982957277392
  C   -0.34894040249936     -3.23884863371109      0.75024045308758
  C   -1.53729607689731     -2.49943132111445      0.59438031625707
  C   -1.23249083495763     -1.17780891086349      0.31242002563933
  C   -2.21999193228787     -0.22113888007887     -0.14008896507107
  C   -3.29147348738867     -0.72724988132257     -0.90397762566148
  N   -4.20037010707555     -1.09551739950595     -1.53337343004722
  C   -2.26383551245243      1.13083623260762      0.15419093826942
  N   -3.18624506836531      1.95142419262344     -0.41824831954611
  N   -1.50021342584006      1.76699479998570      1.10162402269295
  C   -0.23763469938863      1.96211043935054      0.98595367351547
  N   0.35091304354177      2.84625326685491      1.87405387208926
  C   0.66414547966895      1.39755653471309     -0.00738261340639
  C   1.73578810929352      2.09604771734339     -0.62345533420431
  N   1.93784947701517      3.41395689765845     -0.62565913725326
  N   2.61845539537474      1.28316793579717     -1.26875734256092
  C   2.20677403671124      0.04937698629609     -1.01532055702141
  N   2.78215799864207     -0.99727750607540     -1.58935338350025
  C   0.94503964973711      0.02823527862244     -0.19274917794033
  C   0.22639645451871     -1.08035222903648      0.21529309521121
  H   -0.27771161939586     -4.27037097724526      1.05635818653839
  H   -2.53623198029263     -2.90054915591864      0.65336243481571
  H   -3.94704528683456      1.53208992746436     -0.92816020554464
  H   -3.40675898161113      2.78772898932964      0.09256706151986
  H   1.27514344674490      2.59358552550062      2.18643311274868
  H   -0.26288172419323      3.12328304575685      2.62525151081750
  H   1.37305120209358      4.01059184545136     -0.04676657215119
  H   2.79170151591559      3.77025777199939     -1.01700704938116
  H   2.63923401279056     -1.92845497486189     -1.23614069942364
  H   3.62865895795487     -0.82902337346218     -2.10695401588174
