25
Coordinates from ORCA-job ./opt_b97-3c_parallel
  N   -3.47851032403178      1.43101624809454      0.85576405860078
  C   -2.38771659363529      0.95516316791235      0.19200723932028
  C   -1.72810881004185      1.93542103920889     -0.63729987629512
  C   -0.39928953005108      2.13010632318332     -0.82243574739505
  C   0.76417788459305      1.45015220797251     -0.39920698381845
  C   2.01187570591562      2.04835089412527     -0.45474979606124
  N   3.03818760969282      1.25776541509022     -0.01646759541314
  C   2.49205878223108      0.08555405600665      0.25945514276285
  N   3.23129801321661     -0.95171956577949      0.72079125396207
  C   1.04094068094355      0.07146472532443      0.02440361059451
  C   0.27369303510089     -1.05799408862654     -0.00972382186938
  C   0.71259477602834     -2.40449396082719     -0.12392605689027
  C   -0.41962798885936     -3.15209030030857     -0.34277922144441
  N   -1.59621176454333     -2.45497892778781     -0.23962425820712
  C   -1.25941307322291     -1.18854316396691     -0.04030344710204
  N   -2.17916708249736     -0.31823733590050      0.33998474770681
  H   -3.55613508701698      2.41266130026800      1.04814948519806
  H   -3.94941523228048      0.79253117670574      1.47398358240457
  H   -2.38579087827333      2.70587391378354     -1.02045312629185
  H   -0.16616640339609      3.05020644568931     -1.35085978149681
  H   2.21480587649313      3.05468932564981     -0.79250550614885
  H   4.15356210150766     -0.70319433576860      1.03898488024009
  H   2.76280533172245     -1.66036026348977      1.25850905577534
  H   1.72499434516320     -2.74188762488704     -0.26093024284323
  H   -0.45092815515881     -4.20161918337266     -0.60168793028831
