28
Coordinates from ORCA-job ./opt_b97-3c_parallel
  N   4.60851267504984      1.76346066143517      0.60366421670930
  C   3.54654315500111      1.38362809315733      0.31120902526467
  C   2.26386625652345      0.89142250729974     -0.01432434899274
  C   1.49661547687288      1.81130873645325     -0.80580991016001
  N   0.24366769541767      2.08528180487922     -0.91867772779609
  C   -0.86993669598767      1.57339316508694     -0.35755895703921
  C   -1.98642579359013      2.33493544660671     -0.13669072285850
  C   -3.02835571335104      1.42682471272338      0.23956156950655
  N   -4.29650839474107      1.77216641384763      0.50933919697619
  N   -2.63532768245176      0.15299899499195      0.25169036266824
  C   -1.29040903167307      0.16860559821163     -0.04351045112739
  C   -0.54347149800869     -0.97501445290123     -0.02763712919602
  C   -1.15839365345178     -2.31730867319513     -0.05744954778926
  N   -2.46709207818540     -2.55082107535632     -0.02427489169918
  N   -0.24900784026720     -3.28133626880775     -0.19041740867836
  C   0.95134630731845     -2.64947331938065     -0.14401375027690
  C   0.88165145867139     -1.25997419723334     -0.04442475671085
  C   2.02557825974979     -0.46287122269920      0.28320007846866
  N   3.04921880578612     -1.15070510961773      0.85031883454994
  H   2.12902660130251      2.48676464715420     -1.38184383955268
  H   -2.07590473474131      3.39310546740110     -0.31565102287136
  H   -4.53551958621236      2.73091144029356      0.67853861699839
  H   -4.92427180026577      1.06759099333075      0.85387058765573
  H   -3.08250302318656     -1.75517953141968      0.10349080367351
  H   -2.80150383514719     -3.48939914698227     -0.15021365350615
  H   1.85540002124267     -3.23746870793367     -0.21035756931761
  H   2.86168985034491     -2.02107337780385      1.30880807670895
  H   3.90097786558038     -0.67630896994152      1.09725297199289
