34
Coordinates from ORCA-job ./opt_b97-3c_parallel
  N   4.23392341377355      2.89662733904214     -1.02125370185122
  C   3.33091221513178      2.23287888586345     -0.70761419054604
  C   2.30935441396992      1.35643372372807     -0.32234099626440
  C   0.95951965803339      1.60429814288860     -0.23114399465991
  C   0.28188859070532      0.37741640446395      0.05350414590742
  C   -1.10653849530331      0.33190619665410      0.07807633444240
  C   -1.94409048661323      1.46126195152206      0.27757837552781
  C   -1.65272315563469      2.70919025963723      0.82159187982383
  N   -1.51744122787044      3.77893015555528      1.26792124954258
  C   -3.26082070508073      1.11134639793453     -0.12174920238969
  N   -4.31276196266565      1.94062814018907     -0.06585975747362
  C   -3.26340468360832     -0.22234188611584     -0.57570293793356
  C   -1.99826260489762     -0.77025979991038     -0.40543702775618
  C   -1.72473294845619     -2.08935645174517     -0.79274172749716
  C   -0.83412668855808     -3.03888473132978     -0.32695987372510
  N   -1.10751204436884     -4.35034658057385     -0.67449629180496
  C   0.23786072823679     -2.92922212174981      0.60180573052036
  C   1.18264866263359     -1.96066433714577      0.80379923662141
  N   2.24583560539544     -2.30244423601701      1.63074151566799
  C   1.30472896018833     -0.65570355172129      0.20372485896708
  C   2.53880209074952     -0.03807598233361     -0.01440249532252
  N   3.80051961370211     -0.55034054867148      0.08239611852441
  H   0.48505389269553      2.53838924168106     -0.46952028342583
  H   -4.21674786803926      2.84058678853430      0.37250482809540
  H   -5.24217147356651      1.60438865778350     -0.23325337782593
  H   -4.12568983884843     -0.75503318508748     -0.94462717260787
  H   -2.49861771389938     -2.49946305774025     -1.43606028874254
  H   -1.80051257391904     -4.49858383602900     -1.38729143038458
  H   -0.32132952852686     -4.97291458635394     -0.74154744780080
  H   0.39549975497943     -3.84481662588108      1.16384493513561
  H   2.12177266156898     -3.13364477317354      2.18376843408605
  H   2.65552710874752     -1.54285615266968      2.14887717331396
  H   3.89807451647699     -1.54952133650070      0.03885240102436
  H   4.53142416046872     -0.02847799802839     -0.37209485178783
