33
Coordinates from ORCA-job ./opt_b97-3c_parallel
  N   4.60915371190640     -1.55361543618919     -0.22976418660478
  C   3.59436069797315     -0.98617974017659     -0.16981788827523
  C   2.42261037982355     -0.23335867881517     -0.07173680926554
  C   1.11102631256299     -0.69626272849035     -0.19350673572849
  N   0.85537407596294     -1.95675939471146     -0.61724149026328
  C   0.06394141243271     -2.81068865293626     -0.06551811555013
  N   0.11254047433450     -4.08765110789367     -0.53851911473716
  C   -0.87429024314726     -2.61970181371183      1.04111925802944
  C   -1.85135074769947     -1.69060445576219      1.05999771514688
  C   -2.08337114263051     -0.55788977029177      0.22454111269151
  C   -3.37243560527161      0.01462238624214      0.09140367910250
  N   -4.52835963335183     -0.57493754727666      0.46195159962556
  C   -3.30367750524159      1.29993121651528     -0.50833643675110
  C   -1.97736749507080      1.57771361504256     -0.72615881784524
  N   -1.47943943547677      2.58903659861271     -1.46590952466352
  C   -1.15651614415906      0.43758352750281     -0.22738639513043
  C   0.21792954827968      0.46147383992661     -0.10556982674084
  C   1.06812028268437      1.62386905624245      0.08946565186335
  C   0.71341237143787      2.90359454531420      0.50594266742130
  N   0.47202662770769      4.00056642794986      0.82659244582679
  C   2.39726907311540      1.18476778316277      0.14726716780929
  N   3.48538367923444      1.93317204361930      0.38076088254753
  H   -0.68599768396368     -4.68198784506326     -0.41001385760886
  H   0.66398745084142     -4.23682991489857     -1.36726348939787
  H   -0.90880204975534     -3.41844983515750      1.77118616496723
  H   -2.59705512801359     -1.84123350855435      1.84152497540103
  H   -5.34100561357269     -0.00765625009500      0.62220369752888
  H   -4.50608298404336     -1.46001289746501      0.93512811213722
  H   -4.14554448774004      1.87937671818950     -0.85229010425596
  H   -0.49772930835373      2.79229939787346     -1.41277611054575
  H   -2.06190945505959      3.39342045046686     -1.61764136455213
  H   4.36014081765195      1.48650845458666      0.59115271605115
  H   3.37800735780292      2.89310818584178      0.65827796966679
