33
Coordinates from ORCA-job ./opt_b97-3c_parallel
  N   1.24671762696120      4.13374960134548     -1.53975101705954
  C   0.86952744615759      3.22345990239965     -0.92015677723554
  C   0.28266026731389      2.17204242396257     -0.18420918677351
  C   -1.04783672626220      2.34527375755503      0.19365810720001
  N   -1.77334291308386      3.36237253391408     -0.32482296529690
  N   -1.70375177264182      1.66014415224722      1.17610811230611
  C   -2.13931586206933      0.45134915426052      1.06417637689757
  N   -3.10138387907658      0.05246346512484      1.96727548324140
  C   -1.74113060256082     -0.53304005413067      0.08550568512879
  C   -2.57217988554905     -1.54015092046253     -0.45791149208028
  N   -3.90850118191643     -1.63061152597827     -0.38046055002120
  N   -1.88172525423287     -2.52288410160859     -1.09650392916817
  C   -0.59691187042740     -2.24050405249682     -0.90682730609519
  N   0.34795921584446     -2.96868691951305     -1.50720733545691
  C   -0.40589875130610     -0.97056659534243     -0.15649442050202
  C   0.80161649502773     -0.37567779223349      0.16950625230500
  C   2.08144198446242     -1.00540384138231      0.32769601125654
  C   2.38444266108742     -2.33372883352126      0.58854259229716
  N   2.66561335414402     -3.45522871202518      0.76173440938503
  C   3.01937922964692      0.04464907099912      0.39023604208903
  N   4.34302242889952     -0.05171656891729      0.57634650770943
  N   2.43736035485180      1.26352165225604      0.24960695833261
  C   1.12102864555323      1.06670169639490      0.16400031206165
  H   -1.31506249698879      4.05688148135985     -0.89234754347056
  H   -2.58091917097924      3.65461798038744      0.19489564406870
  H   -3.26451862582990      0.71149746095101      2.71219443458276
  H   -3.06357472026098     -0.90883779428879      2.26432105965388
  H   -4.36927946293866     -2.34725022879043     -0.91099304855588
  H   -4.44996112632277     -0.87820009475590      0.00267123693846
  H   1.29240140047807     -2.98198242840803     -1.16316815287931
  H   0.03171765800545     -3.80183727051311     -1.97409362931526
  H   4.85666618428972      0.79145911787020      0.75943308325018
  H   4.75813532042344     -0.92910969865983      0.83159381660636
