26
Coordinates from ORCA-job ./opt_b97-3c_parallel
  N   2.80671072207646      2.73162931211561     -0.95443643540740
  C   2.55544884620224      1.63348794653492     -0.65153866085310
  C   2.23108556401135      0.34490505017969     -0.22775570162738
  C   3.14281259593816     -0.68219973218136     -0.02154408067156
  N   2.53671315667681     -1.84311477975820      0.32677721394473
  C   1.21537595949549     -1.63965166275696      0.26863592224625
  C   0.33798609674134     -2.67628546689910      0.74308491473934
  C   -0.90227326863121     -2.99615404304029      0.33348649850073
  N   -1.59363559400451     -2.54128109981716     -0.77193161980397
  C   -1.91612940522979     -1.32977394726875     -0.96313786959960
  C   -1.59384687844075     -0.15783480125878     -0.15531514728738
  C   -2.49876145322877      0.91273811603249      0.07166284795200
  N   -3.81429126443557      0.89129883710816     -0.13042412522979
  N   -1.90661788579754      2.06162806859396      0.50411033301875
  C   -0.60886063568115      1.80437170250611      0.48569707379117
  N   0.26772166982559      2.67626253194251      0.95700044988280
  C   -0.31544918384406      0.37953978830798      0.05000719947099
  C   0.92453806536810     -0.24404961328273     -0.04949647287222
  H   4.21383498376524     -0.62330410070219     -0.13794209588373
  H   0.79089792338940     -3.32993362020961      1.47803131851807
  H   -1.38932644839831     -3.84463298236160      0.80239788084102
  H   -2.47715107463702     -1.12771044822611     -1.87965050985190
  H   -4.29588392194306      0.04148506832345     -0.35867833228733
  H   -4.35307106140142      1.71716540736056      0.06140940049335
  H   1.24808307929552      2.61782988809655      0.73097961861254
  H   -0.08591817681249      3.58263517936081      1.21673584196371
