30
Coordinates from ORCA-job ./opt_b97-3c_parallel
  N   5.49731693091741     -0.59590613867956      0.03441094098243
  C   4.36549119822675     -0.85016106324438      0.12656467853569
  C   3.01003596601786     -1.17175273199491      0.24468813658053
  C   2.47704547425161     -2.47200547276914      0.57199444926082
  C   1.11589300432211     -2.46650832535816      0.45662982521238
  C   0.69333316390262     -1.13804060947428      0.14458605277991
  C   -0.61659214512423     -0.72401745603556      0.05060188716065
  C   -1.68782447665079     -1.66262023276682     -0.19064064373506
  C   -2.86889387568052     -0.97928031473759     -0.24779623349607
  C   -4.15031668249761     -1.46386652127369     -0.54256024449561
  N   -5.24255687052418     -1.78934389758618     -0.77344576564968
  C   -2.59615616766214      0.42627692727482      0.04708787344886
  N   -3.58798599583417      1.32882220612686      0.18718004725860
  C   -1.22235544305112      0.58669998396563      0.19600068668605
  C   -0.59678940972252      1.77992380261355      0.74140599813503
  N   -1.34146913888963      2.45223542960790      1.68732110796668
  N   0.52327758775136      2.32006905962974      0.40534826093740
  C   1.32953898321379      1.90570358970267     -0.61564497660050
  N   1.46133097691175      2.80595331147381     -1.62261084183580
  N   2.08881451365184      0.84890881663765     -0.66645226763167
  C   1.94938538478044     -0.32080729201775     -0.04004813076941
  H   3.08522977666823     -3.31018892749068      0.87454942827152
  H   0.46111526445422     -3.28325422324319      0.70845262319133
  H   -1.55592688703800     -2.70987823921645     -0.39751971691121
  H   -4.51333760187433      1.09586336862135     -0.12799926355161
  H   -3.36021102878864      2.30303004961557      0.27766462561194
  H   -1.89046256112046      1.88320585472234      2.31061705004120
  H   -0.84336720066545      3.20214270453053      2.14043425999527
  H   1.16025590266593      3.74727812777790     -1.44474752856423
  H   2.25515588578771      2.68575012698691     -2.22858923691568
