24
Coordinates from ORCA-job ./opt_b97-3c_parallel
  N   -1.22586932856700      3.54511156410629     -0.49269708461223
  C   -0.96209679833966      2.30156964920703     -0.00318759267703
  C   -2.07728486825322      1.66141747537033      0.62157773784567
  C   -2.40728588783063      0.34165284204215      0.71157943744830
  C   -1.80889241928025     -0.86293689303271      0.31356073937583
  C   -2.53192203681324     -2.05771457033339      0.33152140292338
  N   -1.80625101989776     -3.13002062306925     -0.08062999108401
  C   -0.58009024522770     -2.66811196724382     -0.32542785512050
  C   -0.47231880454508     -1.26568907210260     -0.12671827063609
  C   0.74000616568658     -0.59567298354556     -0.14485426621204
  N   1.91584961933989     -1.22799243903071     -0.22631009271214
  C   2.82847823845449     -0.24493745438836     -0.03911481579127
  N   4.12947056196548     -0.51584950462909     -0.00542784369203
  N   2.37650992315817      1.02459559035389      0.11109914697200
  C   1.04814741714736      0.90306235154638      0.01092860017839
  N   0.30362586056726      1.97075612171006     -0.09393271938077
  H   -2.16548510402535      3.80708414358208     -0.72703728595514
  H   -0.47168508590189      4.02443359548623     -0.95313927189290
  H   -2.83726970914340      2.35438276893079      0.96218472187191
  H   -3.39391256368429      0.18260137751936      1.13744759020618
  H   -3.56753425270572     -2.16856477382286      0.62116728762833
  H   0.22311468391496     -3.31769604396605     -0.63485081246695
  H   4.44461618872877     -1.46167523577393     -0.11782525617597
  H   4.78822964665189      0.21994553308333      0.16958189125844
