26
Coordinates from ORCA-job ./opt_b97-3c_parallel
  N   -5.96744566925657     -0.86176865393860     -0.64591426917886
  C   -4.85833002694024     -0.58191023138904     -0.44586020013244
  C   -3.52152145462851     -0.22563593194371     -0.19602468661291
  C   -3.09441741921833      1.03200265945808      0.37248581245986
  C   -1.72738540647758      1.05843873941618      0.41636102775037
  C   -0.99990061879361      2.13475563677330      1.01117378289843
  N   0.13777698829413      2.61940478349068      0.67917903837135
  C   1.12830917392021      2.27967280194656     -0.13394009759803
  C   1.78395987224602      1.06985828052086     -0.26673396446505
  C   3.01106862207881      1.15409044630112     -0.97693117157695
  N   3.98228287578572      1.25232064419478     -1.60598536917035
  C   1.36888706087562     -0.22914049501172      0.17354676329434
  C   2.23399676646483     -1.28831255629489      0.38234936138941
  C   3.61706740380016     -1.23431864505094      0.60105796883334
  N   4.75577572693134     -1.24493923793352      0.83374259295116
  C   1.48401842554501     -2.53088733286952      0.36474083953125
  C   0.18336170067680     -2.26129210498679      0.10316534621210
  C   0.00462540754533     -0.83005124544149      0.04152839302853
  C   -1.24210946781187     -0.25778417019611     -0.05654200014280
  C   -2.41469311921133     -1.00637845898793     -0.41773007084152
  H   -3.75877301767403      1.80989769499989      0.71186918361241
  H   -1.51996163914246      2.67675463399331      1.79853957435480
  H   1.57153283415715      3.12469979397144     -0.64974610561059
  H   1.91847894363265     -3.49731251712322      0.56293184992980
  H   -0.61830521968568     -2.97818440877355      0.10288772875205
  H   -2.42159311301397     -1.99747669142553     -0.83452867103971
