32
Coordinates from ORCA-job ./opt_b97-3c_parallel
  N   5.31005748092203     -0.81025812838933     -0.23640459339719
  C   4.23637747565489     -0.39055593876627     -0.07386932007173
  C   2.92182401561976      0.05613436963683      0.09797861657803
  C   2.50551914758929      1.31993841495488      0.53343152016400
  C   1.11689335589461      1.40697674116196      0.48450895094258
  C   0.52545407016580      2.61183083974017      0.86878653395769
  C   -0.69457509584681      3.22487050720433      0.73758234205196
  C   -1.85781279310927      2.89947548511085      0.01755552764371
  N   -2.75183609323330      3.93949058496540     -0.10607391433142
  C   -2.29279538491299      1.69318769276532     -0.54725816788972
  C   -1.94505573267029      0.35747122876576     -0.43590605945825
  C   -2.89515204419268     -0.61414319351854     -0.79052145959584
  C   -2.42407575300798     -1.87539995954902     -0.44651472375599
  N   -3.07533348793371     -3.04376977009160     -0.53008769658659
  C   -1.08551239495598     -1.75123305585119      0.05364236548736
  C   -0.45124638449919     -2.82381160280174      0.65990202478947
  N   0.04218030812383     -3.77363727493418      1.12991754044331
  C   -0.69937013521135     -0.39053853679245     -0.00763406682536
  C   0.60723717488785      0.07156473858682      0.07198029669745
  C   1.78005310961508     -0.73406609042438     -0.17730723727360
  N   1.88546262346290     -1.95098509728826     -0.77696155204962
  H   3.16430917605631      2.11439744134671      0.84413407261776
  H   1.25127956803034      3.26603243323321      1.34220019867706
  H   -0.72329281545435      4.22040859040346      1.16618001731293
  H   -2.40442526474941      4.87641409050547     -0.00913446531564
  H   -3.51105873672910      3.84109216434385     -0.75530496314290
  H   -3.24830821036181      1.80281562072586     -1.05237191373002
  H   -3.88733913991113     -0.39478282273179     -1.15106453197979
  H   -4.05150023080433     -3.07011928279685     -0.75818573284579
  H   -2.67755713881808     -3.86968271303696     -0.11700665468372
  H   2.83120888561636     -2.28834164755999     -0.86801309489946
  H   1.24813303855800     -2.68568867381415     -0.52492224763121
