31
Coordinates from ORCA-job ./opt_b97-3c_parallel
  N   5.73972981824779     -0.31751051547603      0.35793789723728
  C   4.62426418842181     -0.07582117869774      0.12824382752330
  C   3.26337748788920      0.15152820751292     -0.10306608616176
  C   2.66837330907776      1.24396926866836     -0.76593817221594
  C   1.28431519800586      1.13717511183206     -0.68179846736094
  C   0.47022274591167      2.16628216433321     -1.17663801632698
  N   -0.70926346434018      2.58335898160023     -0.84026190699317
  C   -1.65578248132465      2.15009465984507     -0.00906841601182
  N   -2.21862364245213      3.14401291772956      0.72136887096134
  C   -2.22042157040398      0.85020616880977      0.08388968924891
  C   -3.55258539369305      0.82177776645477      0.54972533657857
  N   -4.64842747921685      0.82808061514893      0.94580477505668
  C   -1.65617145729572     -0.41351131547124     -0.22823957406808
  C   -2.43101084597053     -1.54120142818095     -0.35195282259464
  C   -1.58864416852176     -2.68762713079790     -0.29057682812740
  N   -2.02131511778593     -3.94945279908485     -0.42312883838659
  C   -0.26109782185833     -2.28841452942381     -0.08597067738901
  C   -0.20663441876776     -0.88882902018220     -0.10385415118424
  C   0.97130263424925     -0.14912552006645     -0.04011509886586
  C   2.23786092781917     -0.71145329674881      0.33466181725965
  N   2.45607228458272     -1.90206175053184      0.96261131163952
  H   3.20604676264448      2.06635863987745     -1.20901094252177
  H   0.95647945203839      2.80396524836337     -1.91339780407361
  H   -2.03129516763866      4.08558815732821      0.42635279812740
  H   -3.06878830325992      2.97737501810627      1.23162475915193
  H   -3.50766530619292     -1.56230342002962     -0.39151061999495
  H   -1.37663415308433     -4.71801218595534     -0.43647231617957
  H   -2.97003616188165     -4.14232846210329     -0.68567636927452
  H   0.59082837876470     -2.94269395851137     -0.15877740949233
  H   1.70628275727952     -2.24149956650522      1.54341392516641
  H   3.36983857855650     -2.01300280884401      1.37346891127224
