31
Coordinates from ORCA-job ./opt_b97-3c_parallel
  N   -4.31648967605866     -1.21608266792281      1.33176476376795
  C   -3.32409154516651     -0.87363876316631      0.81963094172808
  C   -2.13909697204920     -0.44507284257037      0.20321734658137
  C   -1.60808102944836     -1.34756730193966     -0.82388015003372
  N   -2.53419905086829     -1.82833694100435     -1.69255591464897
  N   -0.40423348731647     -1.79594364856338     -0.97760003571371
  C   0.72958620568841     -1.51642130171571     -0.31933354612292
  C   1.70811250458973     -2.44513915900553     -0.06618830801523
  C   2.85286453423195     -1.71295850647927      0.36486617763990
  N   4.04187468087785     -2.24472923130190      0.70221735146179
  N   2.66582260152486     -0.38888072717132      0.37551539964419
  C   1.35619678001607     -0.18815939637684      0.01336056991420
  C   0.81171820166179      1.06418095262713     -0.09173379255745
  C   1.65004965432375      2.27353252044088     -0.19800319859766
  N   2.99307387552704      2.23901332795294     -0.22984729617526
  C   0.81596152014356      3.36990153179982     -0.36460364896136
  C   -0.50821132116111      2.91849759638599     -0.27446542673637
  C   -0.57060478422645      1.52913151370990     -0.11243498567936
  C   -1.75049480453271      0.88705616812573      0.37373214392268
  N   -2.63304993856981      1.71606977030291      1.01472759225957
  H   -2.29292718080844     -2.64227271691448     -2.23054885956093
  H   -3.50714886667168     -1.63357512894924     -1.54497504278138
  H   1.64268980242456     -3.50407118900436     -0.25056689583656
  H   4.10456459000666     -3.22248973755351      0.91650975630324
  H   4.72029859457976     -1.63890348683977      1.12968842485907
  H   3.42996809557793      1.37536342403501      0.07493693077641
  H   3.51386985748207      3.09607530782470     -0.24238088940770
  H   1.13230603196453      4.38674383142135     -0.53533456863631
  H   -1.37529073351262      3.55999415521438     -0.32208907987454
  H   -3.46926644427671      1.31093214821665      1.40176968882494
  H   -2.24357574445329      2.47663317862285      1.54143609105524
