28
Coordinates from ORCA-job ./opt_b97-3c_parallel
  N   4.30058710613915     -0.08028888168921     -0.04212475415111
  C   2.98533600440448      0.20834397865953     -0.01582279575210
  N   2.54330206305087      1.44246793365868      0.26755207526245
  C   1.19401027634236      1.34114100112526      0.19751037038809
  C   0.44614913372822      2.49254863130642      0.32792625996422
  C   -0.89345972781756      2.80704281082859      0.10911700985557
  C   -2.05688216367552      2.12824531973593     -0.14768656337223
  C   -2.47187765064014      0.77382561492800     -0.08721386638392
  N   -3.84516394053882      0.64520954535331     -0.19772062301290
  C   -1.76225692270666     -0.41559734730464      0.13065028820090
  C   -2.45685105629683     -1.61475120801766      0.36828225751167
  C   -1.60483456028803     -2.70563050054310      0.29406140777670
  C   -0.31669579118878     -2.25299529033009     -0.01119084125252
  N   0.76373816035739     -3.04759808446695     -0.21014989020990
  C   -0.33068488212365     -0.80833488088813     -0.05818217123741
  C   0.85991437343192     -0.09795028745571     -0.09141912196826
  N   2.05273680457407     -0.73701761933351     -0.24913824079292
  H   4.58552709657692     -0.92806677619270     -0.49710121441949
  H   4.93754104789197      0.69534174491175     -0.06480470537912
  H   1.07485092100684      3.35018401528041      0.53216073420319
  H   -1.05026480849825      3.88136209559413      0.10307079151476
  H   -2.88124543452103      2.80047717652317     -0.36183707310826
  H   -4.35792767045174      1.47159124952697     -0.44473965194143
  H   -4.19666094545775     -0.19227517677991     -0.62400389809457
  H   -3.50274748415635     -1.68661410170109      0.61850075500608
  H   -1.87815852372395     -3.73764700494335      0.45576630264621
  H   0.73717692498681     -3.96657837949053      0.19649963285102
  H   1.65019218439420     -2.54783798279552     -0.21503060150479
