33
Coordinates from ORCA-job ./opt_b97-3c_parallel
  N   4.53876693164248     -0.12724834849985      1.84003458560938
  C   3.56999382111713      0.02277893255124      1.21366559655415
  C   2.42902560003517      0.18924289306904      0.39157903907890
  C   1.72659159439247      1.34129720933152      0.50191061807568
  C   0.52515059587795      1.73506940105214     -0.15311846121309
  C   0.21373221910874      3.12112309941310     -0.36298500737629
  N   1.10531975220563      4.10748245908939     -0.24729672345838
  C   -1.15082745434459      3.29673955336095     -0.68202931552522
  C   -1.72599289872333      2.04793687107676     -0.66265578097092
  N   -2.93017751764791      1.70694517902082     -1.12011347071463
  C   -0.69401568870977      1.03290501590697     -0.24811082460427
  C   -0.98691282894782     -0.29020018116152      0.04675474341540
  C   -2.26915018016088     -0.80058525970241      0.53238369117926
  C   -3.26552873824253     -0.06904382619581      1.19350428365007
  N   -4.10632230391872      0.54925532092412      1.71010186074770
  C   -2.22873256056979     -2.18063377290742      0.48654974447951
  C   -0.97254982438411     -2.57843544150498     -0.04023358565060
  C   -0.58086373947644     -3.89766842532939     -0.30844914178072
  N   -0.23964410295005     -4.98341668892952     -0.54831955152686
  C   -0.16726814559935     -1.44535396883602     -0.25557145735362
  C   1.10549976733752     -1.54183239694264     -0.89536828952476
  C   2.24537765556020     -0.85775495823157     -0.64548670642305
  N   3.39178649384307     -1.10976433357411     -1.36069612101788
  H   2.13615108235836      2.06430599852959      1.20538338391467
  H   0.83219298082028      5.06921961412056     -0.33183356841659
  H   2.08546812528351      3.91224537187785     -0.15235061688243
  H   -1.60867691125548      4.21058963043684     -1.02301474113365
  H   -3.27233173836425      0.77267334943193     -0.97596748841929
  H   -3.62688730488303      2.41511491270922     -1.27011608891036
  H   -2.99417201320783     -2.84621700456945      0.84858347568375
  H   1.19163394618992     -2.36087135556083     -1.60329883989257
  H   4.26806865943898     -0.89611714494631     -0.91378626979563
  H   3.41328889457438     -1.96434541241015     -1.89226394569769
