29
Coordinates from ORCA-job ./opt_b97-3c_parallel
  N   3.66282086025801      3.06364217891816     -0.67991303566113
  C   2.75724522497524      2.40066450434975     -0.36751153574145
  C   1.67856564081557      1.55936058932353     -0.00366259295876
  C   0.64154589212496      2.26421575934224      0.68737558164407
  C   -0.69503228803132      2.11375615887742      0.86096373428920
  C   -1.65248331646556      1.19167187444121      0.36234288348577
  C   -2.99612729165519      1.45253795389126      0.34051972603596
  C   -3.63231634385585      0.27482426943624     -0.18694273510124
  N   -4.95487263720339      0.12265040264488     -0.37728742422238
  N   -2.77462454440651     -0.70260353120563     -0.44630135972652
  C   -1.53315728512130     -0.21180252912503     -0.12463614919312
  C   -0.44551568759257     -1.05646616388322     -0.10904672152269
  C   -0.66405015883613     -2.48424600576412     -0.07293847681520
  N   0.43675453266988     -3.15981485081186      0.13743018855996
  C   1.45765679115794     -2.22424848365958      0.16555771834110
  N   2.72461290848253     -2.70705956839046      0.30461334425594
  C   0.99690800755380     -0.90654766447295      0.01748677137497
  C   1.86550538416994      0.19756466801618     -0.27569053376635
  N   3.07457305510514     -0.16363492737501     -0.80928202104737
  H   1.01039424735606      3.19994763190496      1.09342364013749
  H   -1.15353403652481      2.93184502137314      1.40543664392984
  H   -3.48154006901507      2.35930391294824      0.66587689843030
  H   -5.56122419243632      0.92110123895438     -0.37929666868461
  H   -5.26550533050409     -0.69708298354979     -0.86913100105226
  H   -1.63226621039680     -2.95479675009656     -0.11424114826134
  H   2.76160984584655     -3.65721178794830      0.63465133480186
  H   3.42087765734149     -2.08990669285951      0.68618450670046
  H   3.69655237710127      0.56576775852917     -1.11705036934662
  H   3.11448906908701     -1.01516102990723     -1.34060586368746
