29
Coordinates from ORCA-job ./opt_b97-3c_parallel
  N   -4.20986795804559      2.83494258206798      0.27272799653811
  C   -3.26189436003006      2.17184039601795      0.14949795346203
  C   -2.17499292659069      1.29923458936419      0.00533781640609
  C   -0.84019556030638      1.61187061641393     -0.07440794622176
  C   -0.08350392178768      0.40231691157058     -0.08988811971945
  C   1.29761436878145      0.48253241149849     -0.06222558906514
  N   1.90792589758816      1.66906019634999     -0.33979095598165
  C   3.21608107442275      1.46572515298132     -0.17022647991691
  N   4.09609453598016      2.45356173772576     -0.38047367308047
  C   3.53174330695991      0.14367249218481      0.27301374498138
  C   2.34263654240970     -0.53372618798542      0.35712948812516
  N   2.30316950810080     -1.78932035704029      0.84292302935891
  C   1.44045784735094     -2.74438967466685      0.65540880448358
  C   0.24376455589274     -2.91707276298590     -0.06697507326742
  C   -0.81951578962823     -2.09975197766853     -0.39738311133671
  N   -1.89888845372541     -2.74166731860210     -0.98465746020034
  C   -1.03921032478621     -0.71221744019363     -0.10576571534558
  C   -2.31340041517500     -0.13999238983490     -0.03275789781093
  N   -3.54731914275101     -0.73599364135036     -0.04000689113140
  H   -0.40454247275873      2.59333888088823     -0.04325846330933
  H   3.76099271466930      3.32467908167213     -0.75275921435734
  H   5.08257623757569      2.27799434042864     -0.38751891812378
  H   4.49593436187462     -0.24938756276077      0.54855286390184
  H   1.76891795877681     -3.67955230708969      1.11289664167234
  H   0.06005280492234     -3.96787739459669     -0.27326981835010
  H   -1.71379782481972     -3.66270813201227     -1.34291107331377
  H   -2.46762179077008     -2.18460069062013     -1.60034321005124
  H   -3.58903100013904     -1.68555780286842      0.29039421028786
  H   -4.30665556359154     -0.15775156268827      0.28247263526583
