36
Coordinates from ORCA-job ./opt_b97-3c_parallel
  N   0.41741613566471      5.19652333625334     -1.47613020881488
  C   0.36925435190441      4.13195047933325     -1.00718823721129
  C   0.35976919065323      2.84667016920003     -0.41622613212009
  C   -0.91366489937789      2.28117924888883     -0.26275364676893
  C   -1.41775923962531      1.04310991653272      0.05192623588809
  C   -2.82438250292884      0.92903953394285      0.27434732732612
  N   -3.69042713278995      1.94424291210178      0.45492391282848
  C   -3.19623057816214     -0.42187753196338      0.21369426853920
  C   -4.48183572455292     -0.91967565028374      0.42719527407440
  N   -5.55626369212404     -1.33228482282570      0.60628913577987
  C   -2.04667231882465     -1.20617712948827     -0.05039205225900
  N   -2.11334572537336     -2.54581447463402     -0.03361893705262
  C   -0.89087890844759     -0.33403379631986     -0.10396426745959
  C   0.42044608419162     -0.76375845117224     -0.15186350706805
  C   0.87482565337972     -2.07067961348073     -0.51009830428248
  C   0.34567253142715     -2.96145514017975     -1.42812888538073
  N   -0.09514386724249     -3.74568947766739     -2.17561291580680
  C   2.12877168876586     -2.30307100758848      0.12011654699447
  N   2.83555489180298     -3.42877856904157      0.03381765155293
  C   2.51618159907258     -1.13781767568389      0.81052992119319
  C   3.75293816462040     -0.98628755456456      1.43335095365171
  N   4.79165106203740     -0.88432094960081      1.95293306302769
  C   1.58496325261942     -0.09606109870134      0.51437304621249
  C   1.92216507222203      1.20558072140129      0.78614290212437
  C   1.57849171883088      2.44037706302453      0.18933297828811
  N   2.55374378159538      3.37348377274431      0.26352962057257
  H   -1.69068515351118      3.01392283347597     -0.46169913642586
  H   -3.36587964851264      2.81649933594844      0.82866134596842
  H   -4.65302675578917      1.72535251212542      0.64478613077825
  H   -1.45990488139503     -3.11653853345575     -0.54285129642104
  H   -3.03126027490808     -2.95036149178947      0.05724958019927
  H   3.74658457448737     -3.49438644069194      0.45242253767913
  H   2.53413558365605     -4.17943977982968     -0.56210068105530
  H   2.83278619003432      1.27861184601897      1.37136261361897
  H   2.42973256149626      4.28848709480863     -0.13501518752273
  H   3.47542858980368      3.12112548226165      0.56760148425138
