26
Coordinates from ORCA-job ./opt_b97-3c_parallel
  N   -5.53241618870572      0.93968419751234     -0.44578339344891
  C   -4.41152822745561      0.67993413796137     -0.28734991169797
  C   -3.06021170958145      0.34444054527318     -0.09016248360456
  C   -2.55908811556082     -0.97987391212886     -0.01012537994617
  C   -1.17654956287406     -0.93708592970464      0.13053775008259
  C   -0.43208491294222     -2.12383550229412      0.35925589511208
  N   -1.15177072501447     -3.20292073701391      0.75784529377479
  C   0.92916487688851     -2.41530092942198      0.11183118889864
  C   2.06251689726634     -1.72951042342290     -0.23585045931436
  C   2.48191813108635     -0.38704823930560     -0.29822430888350
  C   3.85285430504179     -0.25424618138136     -0.67292227198628
  N   4.96564884018634     -0.25225004030389     -1.00148702640441
  C   1.84073700301171      0.80869365491026      0.02706637391958
  N   2.57059645310935      1.93930978818022      0.08434824253239
  C   1.67537542550907      2.89558199702362      0.37789162770376
  N   0.39385514170682      2.51854305328358      0.48447277313139
  C   0.41006290384497      1.18295041118412      0.27624979718629
  C   -0.79945297381785      0.49682513393299      0.14699920704046
  C   -2.00078027290217      1.23192232458106      0.03882929196404
  H   -3.17165753111601     -1.85820281204709     -0.12369599535037
  H   -2.05981888493157     -3.08170102426066      1.16402572037974
  H   -0.69706316863561     -4.08049474250225      0.92884459050857
  H   1.12630126342742     -3.47969588743935      0.18547060462440
  H   2.88294462975669     -2.40344469511104     -0.44868000271360
  H   1.97719032232261      3.92136054801133      0.53247246176045
  H   -2.05221306932100      2.30460198318417      0.01979876743077
