30
Coordinates from ORCA-job ./opt_b97-3c_parallel
  N   5.44361005159059     -0.12009167779022      0.45956625241701
  C   4.31137061521606     -0.32207772735191      0.27911015613558
  C   2.93522876766347     -0.49309818271824      0.08876766459961
  C   2.25673482360011     -1.66870299662117     -0.21601616826697
  C   0.87083510814929     -1.41965292269870     -0.21499770606006
  C   0.02582117022317     -2.51141302330149     -0.34875322326577
  C   -1.31913630658362     -2.79046288564888     -0.20104393272134
  C   -2.44677834655843     -2.03788657320969      0.13818880600675
  N   -3.57775416730777     -2.77494211914942      0.39748063275791
  C   -2.65932242410916     -0.64466317847533      0.23736967009045
  C   -1.93316491476563      0.50487227223400      0.05713760287560
  N   -2.66960991080009      1.65700465959787      0.01957173092581
  C   -1.80222449865013      2.64854344308274     -0.18949075897274
  N   -2.22879815010544      3.91834803271305     -0.31148943569489
  C   -0.45069499610867      2.21422561696228     -0.24386133897482
  C   -0.46140231242827      0.83995485286505     -0.08133115488234
  C   0.68591464568482      0.02737237275159      0.02536742431574
  C   1.97781827240458      0.55326634931274      0.24051344149908
  N   2.33736341185804      1.84972601295841      0.52166904890824
  H   2.71248395420853     -2.63463620171880     -0.35765570740122
  H   0.58863731262429     -3.41118361343652     -0.57714572906669
  H   -1.53757279074221     -3.84686237928069     -0.31713394923263
  H   -4.47059771480791     -2.31755557648551      0.36401629181787
  H   -3.58743572249017     -3.74578508368115      0.14238438902979
  H   -3.69841226432312     -0.38757871487489      0.41287497615014
  H   -1.61365423727956      4.62448967217395     -0.66967141844570
  H   -3.21729949656688      4.06994432579436     -0.41092513621122
  H   0.39574244211512      2.83057842160234     -0.48926389559260
  H   3.26206325018500      1.93966214870752      0.91519749355435
  H   1.65086955630349      2.37278641938417      1.04397241250366
