27
Coordinates from ORCA-job ./opt_b97-3c_parallel
  N   4.41707800300246      0.68028188422575      0.18627490386488
  C   3.11283947755575      0.35606614294207      0.07894634491307
  C   2.00696336954234      1.21406989583966      0.27664926066983
  C   0.86965438622895      0.46005556994797      0.04278652450008
  C   -0.42861718777521      1.00763072961783     -0.07742824307572
  C   -0.59741970787282      2.39313638095551     -0.25190591244333
  C   -1.95381744687583      2.70583346780449     -0.26130240205870
  C   -2.68153523840866      1.53732758318724     -0.04856007621859
  C   -1.79179132430972      0.44572512792501      0.04783584587350
  C   -2.28219025638111     -0.85101793070998      0.30781491805410
  N   -3.58157816956539     -0.91654760935116      0.75974008425829
  C   -1.72745897989631     -2.11857626884184      0.03054927479003
  C   -0.51465408467843     -2.59783233425094     -0.40416937768123
  C   0.78249743324974     -2.11143414775093     -0.54668545633995
  C   1.39948094900563     -0.90924230905493     -0.26661715432400
  N   2.75630512212492     -0.89337959131794     -0.26782091906530
  H   5.07811625747789     -0.07686125505103      0.18582157730984
  H   4.68412439917470      1.52120104645855      0.66280650271645
  H   2.04856827790283      2.25279329933218      0.55673947016363
  H   0.20651359557683      3.08960958187294     -0.42078261185520
  H   -2.37531174291681      3.68270532873385     -0.44577862338200
  H   -3.75645537889582      1.46612742242924     -0.08738984084303
  H   -3.92059915192995     -0.13468755772526      1.28922990924157
  H   -3.91745514701952     -1.80870750829740      1.07365549474363
  H   -2.45580860622910     -2.91455301162700      0.15352982788547
  H   -0.56090467119367     -3.66272598346702     -0.60843539115247
  H   1.50541820230652     -2.86597869632695     -0.83216109174501
