34
Coordinates from ORCA-job ./opt_b97-3c_parallel
  N   -4.32781322275123     -0.77435464531884      1.97078654954603
  C   -3.41254934736418     -0.69679709382518      1.25592123342158
  C   -2.28732596459071     -0.75021395676609      0.40118665158446
  C   -1.88754314293340     -2.02639899089367      0.00436871096205
  N   -2.66600616602950     -3.07901039382378      0.36164471180581
  C   -0.80748086855396     -2.39758147274914     -0.87091429114216
  C   0.50232128856346     -2.02849338832859     -0.87241080979831
  N   1.39544588342362     -2.85758401429793     -1.56624663865650
  C   1.14343982116276     -0.91639852698455     -0.21871210610698
  C   2.49127301298978     -0.93118767310038      0.19752212511467
  N   3.26982632533116     -2.00426485249159      0.42121440436347
  C   2.95563586380985      0.41125555486622      0.40900005085518
  C   4.23088772346060      0.77255521553448      0.83231631852525
  N   5.30630271481563      1.06192232329564      1.17908975439344
  C   1.91177277582353      1.27302200605721      0.07274692415809
  N   1.91630134691000      2.59922557825531      0.08668277647565
  C   0.72762604570285      0.45840026376939     -0.25508014562219
  C   -0.50750495630709      1.03848781905941     -0.43844040034288
  N   -0.65230784255675      2.39255779259332     -0.67702813856662
  C   -1.94976070167379      2.61424062874090     -0.50086946068850
  N   -2.53327286751595      3.81896111394601     -0.63791322305171
  N   -2.70444880279914      1.52851445100963     -0.13428514123322
  C   -1.84882648135174      0.51381246351569     -0.11634367795464
  H   -3.45120443195401     -2.93758927123703      0.97618908803629
  H   -2.28026171603182     -4.00372116260111      0.32039311427379
  H   -1.05862833947921     -3.24257960021828     -1.50473392964583
  H   0.95545805936791     -3.58481306539318     -2.10793612746778
  H   2.07844079286260     -2.35290103055384     -2.11159907314972
  H   2.96018899623508     -2.89941598683756      0.08276366144506
  H   4.25400531894875     -1.87386121768851      0.57762645529532
  H   1.05126808320884      3.05883425191264     -0.19914405583408
  H   2.71397020062437      3.11017928051499      0.42181970676868
  H   -3.53622293972410      3.84135504651375     -0.67339796397413
  H   -2.03168508852360      4.54085658822314     -1.12157400138891
