31
Coordinates from ORCA-job ./opt_b97-3c_parallel
  N   5.12555660879615      2.01426558768690      0.84789109381020
  C   4.08925845445646      1.52691402291939      0.64512151156573
  C   2.89377525651592      0.84627753601777      0.38120653884867
  C   1.60856243917012      1.31987337769346      0.42524043080156
  C   0.70427341467615      0.23002345262882      0.18423408349013
  C   -0.66920870084057      0.40112492283237      0.14838254251278
  C   -1.36955482703352      1.61520812391568     -0.12336729683272
  C   -0.86652616115945      2.87174400558714     -0.45657095615169
  N   -0.52150169719841      3.94906531216334     -0.73711546198123
  C   -2.74382178806449      1.32376537164550     -0.19725444287867
  N   -3.71804633563574      2.17153522558717     -0.51073717722974
  C   -2.94864644063441     -0.06840888809383      0.10721706231576
  C   -4.21026015224784     -0.65211289734778      0.23354695609460
  N   -5.29612804678471     -1.06372569222100      0.30829675529728
  C   -1.71025801807685     -0.64849089099117      0.35488429053702
  N   -1.57669047365283     -1.83646802844061      0.95515251567249
  C   -0.70463760554255     -2.77050017932060      0.78333478958592
  N   0.13665045957103     -2.98661949112291     -0.23525854643845
  C   1.08539163002124     -2.21250656093355     -0.65278705413654
  N   1.85156407818295     -2.68764000462278     -1.68409406725134
  C   1.51628636776543     -0.95212622876549     -0.07392312647543
  C   2.84927373725872     -0.56249596659464      0.01543286520187
  N   3.97283832119550     -1.27220109453067     -0.23925357769784
  H   1.32258406427235      2.32159472121409      0.69007783765484
  H   -4.67313965513692      1.86278042730937     -0.56086438464794
  H   -3.52014905217069      3.14252545123795     -0.68120736962619
  H   -0.75385756987864     -3.58229775337714      1.50678162595185
  H   2.30398426048022     -2.01421914533732     -2.27792714356918
  H   1.49714556836895     -3.51100520076396     -2.14271540252252
  H   4.85256134748846     -0.89927087316482      0.07442188266822
  H   3.91123933433755     -2.27248090401057     -0.30942617716929
