33
Coordinates from ORCA-job ./opt_b97-3c_parallel
  N   2.77524074853669      2.17802379773415     -2.26208254667516
  C   2.01694274994986      1.88589186675114     -1.43204218375378
  C   1.06240036350472      1.51940032083392     -0.44156754678451
  C   0.19659802636104      2.48850339609400     -0.05137275231098
  C   -0.89308917429695      2.43805919026656      0.87611418835119
  C   -1.91326403302921      1.55172541192212      0.92041089727726
  N   -3.03354915752620      1.82767182504958      1.72555086628782
  C   -2.07175332362248      0.35745609464977      0.10555012471791
  C   -3.31116125185730     -0.10101081280299     -0.41315711499784
  N   -4.46955184996147      0.56475490355861     -0.44715703310885
  N   -3.25325837512247     -1.36519077970888     -0.94674207778429
  C   -2.01390438163717     -1.76353427628279     -0.73452591649938
  N   -1.54862369790039     -2.94021296743029     -1.16695183955381
  C   -1.18238554526528     -0.71923914084616     -0.07376341416039
  C   0.17224136899014     -0.86912431387992      0.19362144862327
  C   0.82841578405655     -2.10715486507500      0.49915025061573
  C   2.17736861337735     -1.85981693338603      0.62796978941877
  N   3.18679551877022     -2.71186995314508      0.95182968686144
  C   2.40881515544894     -0.45584123337434      0.31984327953926
  C   3.69023097259414      0.10371316609722      0.33921053515672
  N   4.79002188781867      0.47408586063934      0.42814726242165
  C   1.18624414310275      0.15988234399376      0.08513551343030
  H   0.40005594193486      3.47561309348876     -0.45651044226272
  H   -0.98890247291280      3.32144338918837      1.50255033418013
  H   -2.89205494650975      2.59600297512092      2.36392089740238
  H   -3.37371646617620      1.01491808550791      2.21960344688766
  H   -4.55073869070306      1.42180505455520      0.07565577853083
  H   -5.29810036530430      0.06860263856743     -0.72380106534421
  H   -0.55197854401412     -3.08639569455107     -1.17755348973209
  H   -2.11149131648489     -3.45275851658950     -1.82444452042144
  H   0.33113803749640     -3.01425057352023      0.80473396010803
  H   4.05595764954255     -2.30771125385440      1.25793244845990
  H   2.94840905763925     -3.58123729347213      1.39395001701868
