27
Coordinates from ORCA-job ./opt_b97-3c_parallel
  N   -4.73997508049024     -1.15938634355305      0.07523121116015
  C   -3.68534155574564     -0.66524840907143      0.04594356916091
  C   -2.45739032190542     -0.00672799633044      0.00695668808879
  C   -1.17975700317919     -0.55010046492976      0.05742815243081
  C   -0.95723133225102     -1.91553933370197      0.32599593938752
  C   0.15149625326198     -2.71644792725405      0.25887621138100
  N   1.34989500225480     -2.59406416406703     -0.32184986050857
  C   2.16500102212105     -1.59955134117875     -0.48095228828258
  C   2.17599221368621     -0.26499165871853     -0.02255286764632
  C   3.37505035195369      0.45761649341435      0.04209788240632
  N   4.63743765192977     -0.03601718195392     -0.10901364720345
  C   3.08266887830322      1.84802087408095      0.23022981115732
  C   1.72966986136259      2.00733346002793      0.24110595764396
  C   1.09341487982845      0.72546676735229      0.11065734794925
  C   -0.27650510682646      0.63560744569781      0.00726834491391
  N   -1.02498415613586      1.79091540992405     -0.07306381259564
  C   -2.29145366365601      1.43110581679079     -0.08300150826904
  N   -3.30621318240688      2.30177242865517     -0.15253892719114
  H   -1.84653053452742     -2.43872052025453      0.65942340309120
  H   -0.00006578547677     -3.71824843893222      0.65450845507776
  H   3.04529971622117     -1.87091320923593     -1.06751174815806
  H   4.79561483875577     -1.00310417665294      0.11023263695231
  H   5.39817786191545      0.56525525825618      0.15188856188904
  H   3.82352485598103      2.62752971530528      0.33073354419919
  H   1.18302903093418      2.92683772199846      0.35036850787446
  H   -3.10422003401387      3.27340226063229     -0.30359133800722
  H   -4.24965301039441      1.98143716329912     -0.27075091760217
