33
Coordinates from ORCA-job ./opt_b97-3c_parallel
  N   4.06430794054713     -2.20508368573608     -1.30232289166331
  C   3.18941220891920     -1.63558201213845     -0.78269547775600
  C   2.12502169439259     -0.97891699776239     -0.13369773114597
  C   2.54044587385653     -0.02804635043516      0.91794423923471
  N   3.39509654625844     -0.58335377720423      1.84724449432538
  C   2.21922929282047      1.28673317731385      0.98380810860511
  C   1.32699125282905      2.06193718448113      0.18910767748071
  C   1.44975865226122      3.42937433093773      0.01162668728048
  C   0.26358452617203      3.87999042133861     -0.61083342425222
  N   -0.61723090838773      2.90673941709331     -0.79515836815013
  C   -0.01275798329005      1.74411550469687     -0.32431717495783
  C   -0.75477928194035      0.59250562050242     -0.16851170588506
  C   -2.24243876660726      0.63492601722626     -0.11353586529491
  N   -2.94339241067080      1.73521861528777     -0.30668694979748
  C   -2.70735621530402     -0.63595822017841      0.22350391805215
  C   -4.02983393703461     -1.01903420424330      0.42676903270398
  N   -5.13287963978399     -1.35822963581787      0.59342787307595
  C   -1.56843477220468     -1.50329333454454      0.27368384807488
  N   -1.66683820280981     -2.80933051166162      0.53498477924503
  C   -0.37730265734457     -0.76928351395816      0.02954623025201
  C   0.84825446115527     -1.39916441013925     -0.40415382743258
  N   0.66117908555776     -2.55931121052363     -1.14419247451878
  H   3.89495711743454     -1.41007466570995      1.56624690938653
  H   3.95709760311915      0.05624358004128      2.38465155288964
  H   2.73850053963932      1.85751855198201      1.74889143510017
  H   2.29177059079414      4.03441271485063      0.30763579737001
  H   0.04328233730554      4.88940206467390     -0.93032314360801
  H   -3.94784471928633      1.72585539690414     -0.25473543812108
  H   -2.40063187967988      2.55480250425843     -0.61310671018050
  H   -0.86192662554843     -3.39931627272598      0.40968743718766
  H   -2.57131690035686     -3.24187703020339      0.60769508166121
  H   -0.09323593125781     -2.51651518050397     -1.81158220998068
  H   1.49789225865779     -2.96369167999144     -1.53796439147659
