29
Coordinates from ORCA-job ./opt_b97-3c_parallel
  N   4.59287718575347     -1.06348061795230      0.81798237059658
  C   3.45286294525704     -1.15652158985620      0.61015916537980
  C   2.07800663183913     -1.32892144873991      0.40766032201928
  C   1.40526448886063     -2.58706710145728      0.44497070358220
  N   0.10765649608692     -2.47893767122072      0.26169067203960
  C   -0.16686221440379     -1.12015433469751      0.13411927918612
  C   -1.45373799319014     -0.71528611143446     -0.11347005927158
  C   -2.53739312106609     -1.64071596563420     -0.56533443815551
  N   -2.35226163800169     -2.92499814590606     -0.81926894733135
  N   -3.69481129924117     -1.00497453812361     -0.74362806882740
  C   -3.45399503908812      0.27463194191542     -0.36074481379654
  C   -2.13087568103131      0.53800690568391     -0.00107359949090
  C   -1.68665125702961      1.68555954057574      0.75820821659400
  N   -2.62464972222739      2.24352793115963      1.57796042288560
  N   -0.52426284578421      2.24950026728695      0.74454236932314
  C   0.50523935349056      2.10043245849522     -0.10990475243824
  N   0.80468799799320      3.21555400889472     -0.80498664410927
  C   1.36066993944090      0.97906560929250     -0.21919168178541
  C   2.57698951651959      1.22546777823457     -0.89014224753617
  N   3.52736957073936      1.51663332002339     -1.49647069067657
  C   1.09699666620639     -0.35349887892575      0.19759161685061
  H   1.87507269932313     -3.54276131995650      0.62687968673450
  H   -1.46731799788277     -3.32864595100576     -0.51560211368882
  H   -3.13375830602124     -3.48505047825314     -1.11495485455869
  H   -4.26426878316065      0.99032765059224     -0.34841538494290
  H   -3.34038079994729      1.64767439240498      1.95342183299446
  H   -2.30203555387745      2.98172965141875      2.18100110224177
  H   1.66014556360907      3.27853992364566     -1.33190044853088
  H   0.34539222892583      4.06830306343715     -0.54240163328468
