26
Coordinates from ORCA-job ./opt_b97-3c_parallel
  N   4.92531079388180     -0.26160005173402      0.28577099300146
  C   3.85582086839833      0.19335590304242      0.22639008463059
  C   2.58077878128318      0.76147723828684      0.15550522630709
  C   2.29137343680307      2.18397747039456      0.16102319131801
  C   0.96699993334121      2.38918306862771     -0.05835462805586
  C   0.31360170330065      1.10791026671318     -0.12869254611196
  C   -1.04038645034907      0.91998639419581     -0.18029779702587
  C   -1.98035309536073      2.00100432667428     -0.46182120638089
  N   -3.22601814297848      1.64013575704161     -0.34735770090215
  C   -3.18903629026663      0.30883716831617      0.07669144680061
  N   -4.35826712534762     -0.28235405615198      0.37089744163701
  C   -1.89220441367741     -0.20117126311407      0.15872516215854
  C   -1.57447745214972     -1.40911246445430      0.84826660600105
  N   -0.56987245071415     -2.20286880331457      0.75640877112352
  C   0.41876917278986     -2.11308813392100     -0.20376581492142
  N   0.46930179723150     -3.22037133318315     -0.99028228980858
  N   1.35044269902661     -1.22734878511891     -0.36997611288022
  C   1.39727091127442      0.06758002336937     -0.03724491584032
  H   3.03686472608194      2.94529542217801      0.32854491095998
  H   0.46783443693325      3.34276326829623     -0.04643424084508
  H   -1.71326211214194      2.99346507922134     -0.79187262168770
  H   -5.19890941303903      0.23325852867749      0.18017821031808
  H   -4.43226474950465     -1.27989478751172      0.43470885834111
  H   -2.30558044899345     -1.70920803006133      1.60328124103247
  H   0.02285804361891     -4.05049827932677     -0.64287386116878
  H   1.31395376055805     -3.34509005844351     -1.52187415300057
