26
Coordinates from ORCA-job ./opt_b97-3c_parallel
  N   -5.35897241353546      1.69015315485453     -0.25185446041454
  C   -4.28750957991881      1.24757486977472     -0.17694429346860
  C   -3.00039165316187      0.69041842021669     -0.08207872005593
  C   -2.72812658774380     -0.70486522955247      0.08143392661324
  C   -1.36205688610909     -0.88379384226807      0.10199934924547
  C   -0.75087254687162     -2.15501663469250      0.34580931783498
  N   -1.38611505175210     -2.98923773419040      1.19357769486418
  N   0.26321557450149     -2.67925563050549     -0.30503022931833
  C   1.39604063738750     -2.28162786579243     -0.80794843099081
  C   2.17889188880255     -1.14538992077152     -0.57290984861774
  C   1.88062466128566      0.11033984135358     -0.08439948778586
  C   2.86806142969783      1.10891478436090      0.09376149373928
  C   4.25134987058839      0.92028069863209      0.01750183136789
  N   5.39808128720133      0.73988391194530     -0.05781585117138
  C   2.17782831700558      2.31059397414195      0.32732166334824
  N   0.85053897565011      2.17244150420877      0.30379087899326
  C   0.58651910057485      0.85894215835546      0.08611736078077
  C   -0.73735576750036      0.44514734410137     -0.02275939418531
  C   -1.80018775410214      1.38062813716095     -0.10698691097951
  H   -3.47642713292324     -1.47765994475889      0.14274862909113
  H   -2.06948984373717     -2.63813734996551      1.83719511126634
  H   -1.04114259559471     -3.92617754155770      1.30893330831943
  H   1.86280744419045     -3.02404225450816     -1.45012009587293
  H   3.21226026766422     -1.27505208818327     -0.87541354019639
  H   2.63011988054347      3.27193270876945      0.52328221696112
  H   -1.66737305464301      2.44351886517072     -0.18992630356806
