31
Coordinates from ORCA-job ./opt_b97-3c_parallel
  N   2.96862931845904     -2.46350316766680     -1.42119614680957
  C   2.09483556808316     -1.95474331016027     -0.84336336362631
  C   0.95972425376034     -1.42223322570452     -0.19654448438176
  C   -0.10823058526898     -2.33367167216123     -0.01908169174429
  N   -0.05144161105735     -3.52218842254905     -0.65433989371483
  N   -1.13189896097814     -2.22727871239930      0.84334836637143
  C   -2.14587824346465     -1.42011224855511      0.84532294638083
  N   -3.16878855900815     -1.74489783125051      1.69021870879857
  C   -2.34644210303047     -0.23789959992094      0.04957890385188
  C   -3.58903816836958      0.27692786768670     -0.30704442737424
  N   -3.55706192482145      1.55963431188912     -0.75516088868474
  C   -2.28720615157933      1.94299732141223     -0.62313515983242
  N   -1.85326499703183      3.15586837651079     -0.95943603284590
  C   -1.41932689343333      0.84698644829356     -0.14339624989915
  C   -0.06989314046820      0.98793052589973      0.07686827380849
  N   0.49364036269173      2.24533959511425      0.13944525553458
  C   1.79880509339313      2.07654090980892      0.29562217321753
  N   2.66051488439523      3.08751015359016      0.43409159424535
  C   2.17584162123561      0.68319914119874      0.30350881572142
  C   3.49204204821299      0.26111155603788      0.49558948151862
  N   4.61558963220619      0.03422129717319      0.69961078488764
  C   1.00030138099109     -0.04602175726052      0.15064722939180
  H   -0.67373417577774     -4.24524461617403     -0.34327314741556
  H   0.76692904482741     -3.78990879840892     -1.17527582340043
  H   -3.73312530379549     -0.99971033716861      2.05597976884120
  H   -3.00577212245764     -2.52483356182016      2.30452215827463
  H   -4.53106595588247     -0.25039195430410     -0.25448259348389
  H   -2.52072428020956      3.84141237919806     -1.26580968876151
  H   -0.91109537399266      3.40322602984760     -0.68171045044694
  H   3.62701977179821      2.90679355623219      0.63842928379770
  H   2.31748262027396      4.02706930100437      0.51444140467916
