25
Coordinates from ORCA-job ./opt_b97-3c_parallel
  N   -3.06327579983424      1.21865001439284      0.91024232648778
  C   -1.87100170628108      1.18080439830511      0.23181940146744
  N   -1.36485210907718      2.33748847532929     -0.05031859563901
  C   -0.24123725864705      2.73339028655064     -0.66085035661181
  C   1.05697413940613      2.30379398784822     -0.61698028015065
  C   1.67151563030007      1.13919588464597     -0.09888246841507
  C   3.03744682674240      1.00665067521522      0.06114767262843
  C   3.29271369287982     -0.34560425920088      0.39378952173253
  N   2.19915241373834     -1.08754812934430      0.42588970073578
  C   1.14005185958632     -0.22887945824022      0.13727643389311
  C   -0.12028079133446     -0.73713767536334     -0.01731252862116
  C   -0.40108897254818     -2.20742087344420     -0.12579783471226
  N   0.53934116200593     -3.14221195449913     -0.09709114661174
  N   -1.68724375124383     -2.45399521714237     -0.32754208698602
  C   -2.29454411399045     -1.23146959609340     -0.28386709192683
  C   -1.43368952745647     -0.15368959480334     -0.13042878691328
  H   -3.29991294164522      0.43901036277533      1.49711519572173
  H   -3.33687571014577      2.12804506074699      1.24346765334556
  H   -0.38041972950864      3.67291420359346     -1.19113871107091
  H   1.75703255911985      3.00218873209101     -1.06133005886696
  H   3.76997833376739      1.78794700107580     -0.06207142959040
  H   4.25786711993987     -0.78204761426256      0.61446528240011
  H   1.47902347290854     -2.83785428424205      0.15479908899685
  H   0.27455184720278     -4.10679774187703     -0.19599028388372
  H   -3.37066700058453     -1.17087854665691     -0.36354243040963
