29
Coordinates from ORCA-job ./opt_b97-3c_parallel
  N   4.62858498968730      1.96419957474884     -0.17080885683048
  C   3.62076286974663      1.38052002588889     -0.10622648143275
  C   2.42614750587476      0.67151238295065     -0.02443314898540
  C   2.29449371527420     -0.75358844292301      0.08739733441254
  N   3.35183544980295     -1.57157732977802      0.25208869629874
  C   0.94293070966088     -1.12696735281626      0.08157628337744
  C   0.54576221954882     -2.39930102190165      0.61682282917944
  N   -0.47859906782291     -3.14050280863660      0.41268614519037
  C   -1.48033540330308     -2.97538804195305     -0.49853229367110
  C   -2.32428799113536     -1.94982122503658     -0.73234999016342
  C   -2.31424905443294     -0.59619082305717     -0.25687986067904
  C   -3.43236170173552      0.19332440841646     -0.23491841308510
  C   -3.00106685847639      1.52495008659863      0.08688211624349
  N   -3.81171027682025      2.60533215970634      0.19753955547889
  N   -1.68977387564043      1.60571306256720      0.22513679564596
  C   -1.19062112276514      0.31928452993731      0.03041140546902
  C   0.16484340763639      0.09130416767077      0.00523988629761
  C   1.14003628398525      1.20610091703610     -0.02962852898032
  N   0.80519671940369      2.48679199654507     -0.12773562601229
  H   3.24858090390945     -2.55432017493383      0.07951102332264
  H   4.27872295260928     -1.19798675118923      0.14755435400684
  H   1.23891672007533     -2.80102310842243      1.36134686019740
  H   -1.69813791302713     -3.90162675540220     -1.02448068798347
  H   -3.16184162793462     -2.18484046833903     -1.37959154455702
  H   -4.44287059097423     -0.12066137940636     -0.44501891117006
  H   -4.78660141204287      2.45000246172495      0.37890722533792
  H   -3.41697986438871      3.42320084120283      0.62933359973167
  H   1.51397865571256      3.19934035986355     -0.11507328887781
  H   -0.18428829192799      2.69888460063805      0.00334540353886
