27
Coordinates from ORCA-job ./opt_b97-3c_parallel
  N   4.97568580416202      0.77568857871321      0.55259739655830
  C   3.84665012260706      0.56763382527287      0.36819824036536
  C   2.48261099932096      0.24502032852989      0.14177784620569
  C   1.65247449955316      1.37785404155907      0.04873118039649
  C   0.31957283044686      1.65112360907741     -0.08737468385868
  C   -0.07646750903742      3.01773881216663     -0.21866879914740
  N   -1.38469275114965      3.16208559652559     -0.34577544179318
  C   -1.91775196962154      1.90901103535714     -0.26748791975221
  C   -0.95597127481931      0.90869921351635     -0.10624665748833
  C   -1.24248494526851     -0.46157564423508      0.03350505939447
  C   -2.51116431646072     -1.01207708255160      0.22593077356015
  C   -3.71215378943772     -0.36315454699371      0.53132202768455
  N   -4.73918752650464      0.11552111617438      0.79689327565131
  C   -2.44675441968067     -2.44253739437837      0.05613666413295
  C   -1.17438921698030     -2.80782177347386     -0.23230601512517
  C   -0.33210153751254     -1.63799924733503     -0.18695474976962
  C   1.01223739966910     -1.84167947069584     -0.26225288822197
  C   2.23328801332470     -1.13239090686218     -0.03350475074784
  N   3.30905289836766     -1.95503158793881     -0.00498795345564
  H   2.24096785552878      2.28807897409053      0.09791790401816
  H   0.59602945946248      3.86440598095179     -0.23266528651239
  H   -2.98155632250981      1.77820682028336     -0.35622410420467
  H   -3.29806418993301     -3.09549916797189      0.16660019845217
  H   -0.80595893842991     -3.81193586079646     -0.36357440129042
  H   1.22512069565707     -2.88712094064938     -0.46173520903554
  H   3.19674015994504     -2.94991688714845     -0.04520412311482
  H   4.23455201080089     -1.60153217948763      0.16860209229830
