26
Coordinates from ORCA-job ./opt_b97-3c_parallel
  N   -5.21931794049579     -1.68704277621790      0.10483299995893
  C   -4.15787270773244     -1.21982683438990      0.03132876795810
  C   -2.87737104119288     -0.64612173452494     -0.06145370865187
  C   -2.58638104254850      0.63359989357167     -0.60306449752571
  C   -1.22498166468299      0.87873219212870     -0.47300551338913
  C   -0.66446459822189      2.07808063681173     -0.97892221586256
  N   0.40058721502560      2.73938054687043     -0.66715567137634
  C   1.33314764640837      2.42417589432019      0.26456829098629
  N   1.54223661795444      3.40305770809816      1.17395282749024
  N   2.16198085774707      1.40683203032293      0.30355498734582
  C   1.98683879274372      0.12242935410979      0.04974831126328
  C   3.01278208241449     -0.79355503752292     -0.07648290379974
  C   2.40724318889386     -2.06292820390221      0.03580610404221
  N   3.01347686671471     -3.25016677598524      0.02574040097082
  N   1.05282151363716     -2.02168801843182      0.17949944224677
  C   0.71267505551972     -0.73165404764673      0.13342379066829
  C   -0.62350602297814     -0.32953095355968      0.10369153438213
  C   -1.68007688852313     -1.23924973966149      0.33067043975252
  H   -3.31042673112551      1.31132630889140     -1.02610355605805
  H   -1.27656187031609      2.57072887559596     -1.73263464131046
  H   2.37453873910760      3.34983732877068      1.73384362106370
  H   1.14589305080007      4.30825609851855      0.99537486361046
  H   4.06455843935991     -0.56713110879559     -0.10726135477942
  H   2.45087964637992     -4.07983037608977      0.09647775614856
  H   3.99098454540728     -3.34248191297434     -0.17577243947145
  H   -1.55585583409473     -2.23784559490493      0.71063770843708
