28
Coordinates from ORCA-job ./opt_b97-3c_parallel
  N   4.52166080073613     -2.41258246596124      0.06272565611158
  C   3.44329236482775     -1.97834582038778      0.01782990271666
  C   2.13368922704721     -1.43296548368667     -0.02885849968844
  C   1.14069922908350     -2.34258259642023     -0.43241158463747
  N   -0.15744594992288     -2.36522695531742     -0.33773844819655
  C   -1.13705404707916     -1.53627632008565     -0.05960000118394
  N   -2.33743668070891     -2.02357226946624      0.25639242516127
  C   -3.16298333059838     -0.93889956449633      0.24155261692444
  N   -4.46323860462276     -1.09361195920182      0.50756059713384
  N   -2.61940924485827      0.24911156262918     -0.03953985521333
  C   -1.27808966200580     -0.01521130284780     -0.15221491343870
  C   -0.33723435980535      0.97652617123035     -0.13312616145687
  C   -0.71412814133650      2.37690948115010     -0.10062785073605
  N   -1.96975254704027      2.82238871272877     -0.22097576925457
  C   0.43081150375799      3.16333159115258      0.03083795326225
  C   1.54416540397704      2.33011408094123      0.11123208423744
  N   2.81218395446840      2.77912443957842      0.29270584172231
  C   1.14124529245439      0.95078701879297      0.02401023317797
  C   2.07848795846762     -0.03341496955475      0.16395463683540
  H   1.54530123845129     -3.25523018930806     -0.86747319575392
  H   -5.10024344414140     -0.33761285968707      0.33857143889760
  H   -4.82260790077123     -2.02547301272103      0.60342274323464
  H   -2.17713651530559      3.78234691086982     -0.01309658549281
  H   -2.69581557831200      2.10963673074391     -0.15121913135654
  H   0.44981725610137      4.24247798428889      0.05355153807805
  H   2.97970151935871      3.75725194251205      0.14053728246398
  H   3.57846291831039      2.18993662604005      0.02120756485118
  H   3.06467986846647      0.34798023258362      0.40105952700049
