28
Coordinates from ORCA-job ./opt_b97-3c_parallel
  N   -4.16437509901980     -2.40985507120636      0.01742777277303
  C   -3.28250518264083     -1.64858867765526      0.01225319974859
  C   -2.26413093716553     -0.69635398958222      0.00144578825453
  C   -0.87678534725709     -0.92289481995718      0.14427306363244
  C   -0.39588348214045     -2.17833545911683      0.47165829558639
  C   0.87561302795630     -2.75487663006208      0.54999580353707
  N   2.03678454822251     -2.44629377675661      0.04365287862365
  C   2.57508472795482     -1.33742302525214     -0.42980252672290
  N   3.55938664713060     -1.52587901886627     -1.32914830819836
  C   2.36323794577972     -0.00687692092971      0.03480836738636
  C   3.39079633400449      0.90280170745688      0.23746443427145
  N   2.93306963543323      2.12266118744472      0.64069928468372
  C   1.60789326485256      2.04593538554171      0.62400823636146
  C   1.13397171713773      0.74248321716552      0.28135902523879
  C   -0.20843212533030      0.42184955191404      0.09094278418931
  C   -1.23927577497828      1.36829797890912     -0.09121481589110
  C   -1.17511404709919      2.74866109145065     -0.28812131957108
  N   -1.25242271985033      3.89656288353967     -0.47013063721998
  C   -2.48917475144822      0.69227656898564     -0.15303171496977
  N   -3.66710011813306      1.27317780069855     -0.35005041233913
  H   -1.17726361627381     -2.88616890156606      0.72539155498860
  H   0.87939750975044     -3.72506585353127      1.04141959718175
  H   3.84481782540415     -2.46114688038349     -1.56099191465803
  H   3.96997380845829     -0.74834315031903     -1.80994008900438
  H   4.45083166403504      0.70654718930930      0.17060878130501
  H   1.00232289095876      2.89076857089547      0.90697069113592
  H   -3.73596722721376      2.27077625599578     -0.45809810613643
  H   -4.50959322042786      0.72760913877723     -0.40111183818707
