29
Coordinates from ORCA-job ./opt_b97-3c_parallel
  N   5.00237748794455     -0.86661941302885      0.45338337185127
  C   3.94919562920360     -0.41050506860945      0.26758168069228
  C   2.67407671769576      0.13596135821559      0.05651440857962
  C   2.41003343046568      1.48800522500757     -0.29220578921601
  C   1.03998750901463      1.66680552501102     -0.33273600199808
  C   0.42012331140465      2.82170001703705     -0.83121519312811
  N   -0.10078321851802      3.78907103371479     -1.21682728257192
  C   0.40353423753648      0.38650557806494     -0.03339534931729
  C   -0.95736358894239      0.16408320565671      0.17007205472085
  C   -1.92491740432875      1.20374633722713      0.69309593973670
  N   -1.51997415403824      2.29785475091235      1.33507165791426
  C   -3.20568636806523      0.71898754388044      0.58752951434989
  C   -3.09670961056769     -0.60093532254375      0.08822896497267
  N   -4.12749420079488     -1.39990699447945     -0.19286506832256
  C   -1.72526118303642     -0.97317695314310     -0.09985005444884
  C   -1.33331160784886     -2.08713900747352     -0.94766662718210
  N   -0.34685321866253     -2.87965065191651     -0.82763277714395
  C   0.53341637070683     -2.88797837333422      0.23571821814193
  C   1.38659207966222     -1.92732392773588      0.62931122070584
  C   1.46507253012678     -0.56804192991826      0.16244668002623
  H   3.15174591108300      2.22897070998578     -0.53781283169385
  H   -0.56291248488334      2.59690714749936      1.26207264755847
  H   -2.18657642059353      3.00601195289153      1.58797974264315
  H   -4.10452302773740      1.18624578251393      0.95449822282458
  H   -5.07455274880418     -1.07791986219649     -0.11442327379058
  H   -3.98406931058044     -2.35763817601610     -0.45781759141461
  H   -1.95406745204911     -2.24339654330895     -1.83454065092618
  H   0.63486730330415     -3.87334823854068      0.67871375456288
  H   2.15721462620284     -2.22795120447362      1.32959020477289
