32
Coordinates from ORCA-job ./opt_b97-3c_parallel
  N   -5.33561215554478     -0.83012540292552      0.90816289034762
  C   -4.24301931255810     -0.74838134686149      0.51677760188773
  C   -2.90537866632033     -0.60072089555514      0.07124085991354
  C   -2.49281865206768     -1.59652903749603     -0.82299170289399
  C   -1.28655184966936     -2.09438863502026     -1.26254667722765
  C   0.01554920508507     -1.95813914747199     -0.78544098492789
  N   0.86947209537730     -2.96667742925267     -1.04257990753200
  C   2.00278768490065     -2.70560958292161     -0.36429328050617
  N   3.00397855057904     -3.58000881529170     -0.33652445633308
  C   1.96595415157147     -1.44457863473571      0.29976755586698
  C   2.93779788141400     -1.02228720957991      1.19589202997620
  N   3.78527007479087     -0.68090919255142      1.92265945233790
  C   0.70749763537198     -0.87885069174355     -0.00746372366067
  C   0.35072581340647      0.46025587409623      0.05924798833977
  C   1.31253376685492      1.54783953110808     -0.02943930662184
  N   2.65337633329767      1.48012848590703     -0.22645303857252
  C   0.59034298448402      2.75087933556720     -0.15226805763066
  C   1.18251180595004      3.99939716744568     -0.36875506128138
  N   1.72603509618246      5.01379752506672     -0.54295705965720
  C   -0.78255563523639      2.46798442197719     -0.04682775784686
  C   -0.98146749349350      1.09917659447671      0.07254104286368
  C   -2.26323288804435      0.60755897989107      0.46382123045849
  N   -3.01480823048696      1.47010096456983      1.17886020769276
  H   -3.32960760585560     -2.18180859107786     -1.18732965433731
  H   -1.37377542026010     -2.93654699035931     -1.93634456482673
  H   2.89614170005479     -4.46388165708194     -0.80141722866026
  H   3.82671831147528     -3.41472943777259      0.21493178918802
  H   3.10322642417499      2.37023555466014     -0.37424329022002
  H   3.21020301709089      0.85286996745230      0.32966183337854
  H   -1.55590199902758      3.21733323415989     -0.08346383676666
  H   -3.97509383085153      1.26986287747985      1.40334667576474
  H   -2.58313262784534      2.25825066864090      1.62236496538677
