27
Coordinates from ORCA-job ./opt_b97-3c_parallel
  N   4.10379544029424      0.39458401677006      0.08863566214146
  C   2.76450806516513      0.50623640121379      0.02564462833755
  C   2.03443686381161      1.65571867059057     -0.31433732107155
  C   0.69554224875475      1.34219005587497     -0.10579281399784
  N   -0.24955525637513      2.24662868676536     -0.01367321201960
  C   -1.55473377405677      2.17326791657080      0.23246859869423
  N   -2.00834354789496      3.13696852489144      1.08144272158336
  N   -2.52662550847965      1.44397805239043     -0.31663160445091
  C   -2.53343081025426      0.17312829627524     -0.64716043940478
  C   -1.70802721947580     -0.91021242385175     -0.37154855593587
  C   -2.19955275115093     -2.21246823900792     -0.57503974386502
  C   -1.27280227957865     -3.16174073634795     -0.16618816311785
  C   -0.11838000337654     -2.49301177577698      0.26130383962159
  N   1.02595788337334     -3.05575033980592      0.70407612500037
  C   -0.33306215898097     -1.06413773445043      0.14474669210499
  C   0.70504020213506     -0.16240774001638      0.19824015667760
  N   1.99511522059461     -0.55803823662060      0.36109323818977
  H   4.68222976354319      1.07265066894804     -0.37065197697530
  H   4.49116517743140     -0.52125298541720      0.23032807667134
  H   2.42124586509125      2.64392522375709     -0.49422565219569
  H   -2.99472659175321      3.32666723536545      1.06769634757937
  H   -1.38543446949459      3.89824656484211      1.28350627790068
  H   -3.44212938014416     -0.11133288697287     -1.17562732013570
  H   -3.18259848078994     -2.42668208954408     -0.96745628773457
  H   -1.40091825316159     -4.23321576619156     -0.18971430373071
  H   1.18427806774134     -4.02468691609880      0.48928394284566
  H   1.82625769303152     -2.42626529345300      0.70081593288750
