27
Coordinates from ORCA-job ./opt_b97-3c_parallel
  N   4.91013694643402      0.82370188488434      0.86438639924128
  C   3.79722259562955      0.74164335144408      0.53703692834705
  C   2.43718714957272      0.58558188994677      0.16263463943118
  C   1.87549650992817      1.75688046382303     -0.37512985697872
  C   0.60696050610141      2.25270652690366     -0.58008080960565
  C   -0.68844507763028      1.83760770792085     -0.27446929619153
  C   -1.74799127010264      2.74128736110828     -0.27056963848619
  C   -2.91707043527360      2.08794551328553      0.12723002049891
  C   -2.66108804613591      0.72710742946222      0.31829899712970
  C   -3.61981701076684     -0.18851857719909      0.76915547901160
  N   -4.43939044586071     -0.91988717121926      1.15216150344654
  C   -1.27314188739518      0.49041554478063      0.05026802249150
  C   -0.70233590309254     -0.75164544836532     -0.11260496131227
  C   -1.49184550888424     -1.92399442883290     -0.43587428899480
  N   -0.74678778017782     -2.97053692494273     -0.70352166168936
  C   0.55134981120558     -2.59668332723514     -0.45798510642550
  C   0.68015480655695     -1.25615496087376     -0.13413943565236
  C   1.92471035972156     -0.72640669216357      0.33147839546420
  N   2.75814793630021     -1.63566782585836      0.87838255856807
  H   2.63761472003912      2.49725689981859     -0.58608205114051
  H   0.62428026407885      3.27054717703435     -0.95354618836610
  H   -1.65829921944851      3.79289098208377     -0.48916236359682
  H   -3.87883260686849      2.55108708022712      0.28334417109381
  H   -2.55788309468364     -1.94161742191906     -0.58437716915283
  H   1.34626669204668     -3.31644436993932     -0.58056503772295
  H   3.68786898415586     -1.38659515345273      1.17113259852961
  H   2.40448820965140     -2.53033034341963      1.15886449206327
