26
Coordinates from ORCA-job ./opt_b97-3c_parallel
  N   -4.30954085056783      0.33343165961738     -1.15919339117844
  C   -3.21351996130168      0.26267896686522     -0.77334059022562
  C   -1.89809717029250      0.20223535730747     -0.26401088447171
  C   -1.22537115757166     -0.98391123904052     -0.37371717850307
  C   0.05540838700499     -1.40046446267482      0.02774256498915
  C   0.40132269281650     -2.76129077030175      0.10516447962182
  N   -0.39620684238505     -3.84149426305071      0.02368287670353
  N   1.76334703918951     -2.96684850791154      0.26015351425252
  C   2.30391269653588     -1.77476840469387      0.23224272595750
  C   1.33216038943210     -0.70777395706357      0.10957039493193
  C   1.68714796427340      0.60611902622020     -0.04379833674903
  C   2.96307986605707      1.11554879286950     -0.39515456725304
  C   2.78414873044640      2.45715821970484     -0.61054756910638
  N   1.51471459699733      2.91712448345940     -0.31161957073624
  C   0.81321966985035      1.85578525489913      0.02965096225736
  N   -0.37991029029499      1.99378798707412      0.60656010991285
  C   -1.49055928980326      1.34404917754554      0.58719681367006
  N   -2.44926953928001      1.75942110981151      1.44667276454161
  H   -1.81307727673627     -1.76501140921027     -0.84979051441553
  H   -1.37746557537203     -3.77101671910290      0.21696100156012
  H   0.03372352400537     -4.73653603016303      0.17683490265831
  H   3.36928657591677     -1.64086365469116      0.34377315051841
  H   3.85336136179852      0.54510323190745     -0.59736485886253
  H   3.51752279213595      3.15326249088325     -0.99155155827701
  H   -3.38495488948802      1.40134351907958      1.38379440116097
  H   -2.30899587876684      2.63962298155950      1.91119466384247
