23
Coordinates from ORCA-job ./opt_b97-3c_parallel
  N   3.94360181743709      1.05283746112789      0.50125154945385
  C   2.72494731638125      0.59006874104518      0.21577621563214
  C   1.58938266173900      1.36754966465819     -0.13549594468111
  C   0.53110221749277      0.49051725096080     -0.21704884555128
  C   -0.83450999456794      0.81736397471521     -0.30674837548467
  C   -1.29609712807296      2.11981369524931     -0.55498204680580
  C   -2.63444668964924      2.22901378654028     -0.16287780338174
  C   -3.03672858719712      1.01424003417928      0.38737185756237
  C   -1.98000252980705      0.08852285815528      0.27123794235737
  C   -2.15310501265853     -1.24178058059670      0.65789858104014
  N   -1.59525573474762     -2.33551708244333      0.20047055475130
  C   -0.49353947306841     -2.54452640984567     -0.48329094039166
  N   0.71581658795215     -2.06003361459090     -0.34338890439777
  C   1.18991222108053     -0.88316641774486     -0.02756595159429
  N   2.48579896368067     -0.73874303057315      0.28386717474228
  H   4.18481088282468      2.01735260490249      0.37535031819726
  H   4.66722637137690      0.39678634458354      0.73621137914105
  H   1.54586202691819      2.44334322177693     -0.15954172319088
  H   -0.69093820387006      2.92323362302865     -0.94507723758057
  H   -3.24810873840219      3.11163928600371     -0.26007600404435
  H   -4.01625649767960      0.77879268146978      0.77422231455558
  H   -2.98496487855712     -1.42371581325088      1.33489701469303
  H   -0.55812282800535     -3.37800571085111     -1.18149722062223
