25
Coordinates from ORCA-job ./opt_b97-3c_parallel
  N   -4.62736555267332     -0.09866575376730      0.01846902633518
  C   -3.47152065657363     -0.20716252722825      0.01522377120106
  C   -2.07241356089644     -0.49186640279694      0.01194948987364
  C   -1.81964743487701     -1.89324187673433      0.01839691261140
  C   -0.71769312525738     -2.69565716260743      0.01585403647648
  C   0.68218233971953     -2.49604336229213      0.00585646402499
  C   1.52569717714938     -1.42550030201840     -0.00103847536181
  C   2.92553192225373     -1.65562703577174     -0.00843431609840
  C   3.60702696637316     -0.46494764782218     -0.01187218025637
  C   2.67660426317741      0.60659021285422     -0.00728468609472
  N   2.99431615758733      1.90400100634372     -0.00776152233059
  C   1.35078538074463      0.06726756901516     -0.00088155324650
  C   0.23215150649660      0.87903604099812      0.00034300679508
  N   0.38256822916007      2.23618626363231     -0.00363911798619
  C   -0.86620976503861      2.72888986043358     -0.00343805927583
  N   -1.86317168435321      1.84965867580629      0.00090498367653
  C   -1.25661657667218      0.63293687528706      0.00412070619352
  H   -2.74420084231949     -2.45645796524032      0.02643613169921
  H   -0.97489131428065     -3.74797454680264      0.02220718355512
  H   1.22034726495759     -3.43820649526879      0.00393103315808
  H   3.36938065778499     -2.63856685451473     -0.01017124175639
  H   4.67996902470808     -0.34375478013746     -0.01704688284287
  H   2.21380645863006      2.56005454468730     -0.00954731579479
  H   3.95150204594315      2.20266563408618     -0.02068271975839
  H   -1.04901922674387      3.79414919075884     -0.00658063169742
