27
Coordinates from ORCA-job ./opt_b97-3c_parallel
  N   -4.75471222012351     -1.12026619300120      0.20635297824421
  C   -3.69291976762746     -0.64306270853541      0.15421414473045
  C   -2.48106841742500      0.04149921129971      0.10679819699471
  C   -2.38365448830533      1.48087491756698      0.11611475052578
  N   -3.44620516397134      2.27245421417561      0.27262550796817
  C   -1.05381287455201      1.85818867273805     -0.04057743988204
  C   -0.24939169749532      0.71240879768030     -0.10150144399641
  C   1.13763164664976      0.72447910465107     -0.09552768241340
  C   1.88773692294654      1.92006260337024     -0.20096838478180
  N   3.20046774496118      1.74295820757913     -0.06247405949861
  C   3.38109770258900      0.41930202817049      0.17993584261917
  N   4.64427805247530     -0.04263884761249      0.40853457650236
  C   2.16248698062809     -0.30837563481477      0.18014291032932
  C   2.13245957801336     -1.66137548060895      0.47351603738922
  C   1.19654771874009     -2.67005175416806      0.33034213566050
  C   -0.10289505686254     -2.67124504918622     -0.18412643221243
  N   -1.05499466812334     -1.77958772712918     -0.28026611209649
  C   -1.20258664131736     -0.48785949956061     -0.07179386488559
  H   -3.36889026690655      3.27044713832835      0.20830445714804
  H   -4.36517503004681      1.87707359172254      0.37316556967918
  H   -0.70251232948835      2.87486987494152      0.00181704698995
  H   1.49599119385779      2.90411675753210     -0.40629893193608
  H   4.85974801077022     -0.98095778467575      0.12236881588253
  H   5.36250969091342      0.62427007139070      0.17960972730531
  H   3.08895521415462     -2.04003261624534      0.82272434375301
  H   1.57850564659686     -3.66676589443249      0.51617327789025
  H   -0.42962014804957     -3.65387826307507     -0.52360826730932
