27
Coordinates from ORCA-job ./opt_b97-3c_parallel
  N   -3.70437292754055     -0.66885114817815      0.00653660031003
  C   -2.56210457199904      0.03415740528986     -0.04269740386620
  C   -2.49957421073695      1.44691741305109     -0.16333539240961
  C   -1.17180581784135      1.78661694616233     -0.10464739786838
  N   -0.60204548845694      2.98260330286001     -0.22213135023126
  C   -0.34789875759038      0.51366256588694      0.03228143263978
  C   1.04017733548135      0.54542393893706      0.09170255096917
  N   1.68750504870421      1.76390162618397      0.32852153480502
  C   2.98176352526672      1.53270396889614      0.22723610062127
  C   3.24534559157369      0.18015929039209     -0.11890528345126
  C   2.02958439440781     -0.47164427853689     -0.19422767610469
  C   1.93886501511000     -1.84249521747471     -0.65269569310815
  C   1.04256235997696     -2.81234761112059     -0.41680268129092
  C   -0.16038598360428     -2.82901089309923      0.38564692627983
  C   -1.11869979516997     -1.90403291468261      0.55671535202079
  C   -1.26679545654645     -0.54830431087921      0.08148099760053
  H   -4.58348056124325     -0.21882492928842     -0.16851598843251
  H   -3.67676087213826     -1.66684087245002     -0.10252254179732
  H   -3.33453491215510      2.11186807355796     -0.31253685693390
  H   -1.16786019814468      3.81270622309057     -0.21863197484132
  H   0.39953937117922      3.00989112386671      0.00715764006863
  H   3.70523661970986      2.31914693791161      0.39090770686139
  H   4.21225995130578     -0.25943946931325     -0.31062434696948
  H   2.79455317118430     -2.13920090590157     -1.25139837837922
  H   1.29346989198662     -3.78266985829357     -0.83668057075335
  H   -0.34202913722125     -3.78226929634888      0.87360392547380
  H   -1.94107024139755     -2.22736322561937      1.19411532238790
