22
Coordinates from ORCA-job ./opt_b97-3c_parallel
  N   3.90355971203447      1.05124072377404      0.21886292379896
  C   2.69410929553072      0.52058134313098      0.08759680672067
  N   2.50402577936494     -0.81857263746661      0.18820606322458
  C   1.19214276704148     -0.97307090007865     -0.01438768323687
  N   0.69958272060813     -2.17816927271011     -0.17591346772858
  C   -0.47583007471830     -2.75061629333958     -0.17431568569491
  C   -1.75472817360243     -2.38380021726584      0.25954567157845
  C   -2.36894381035656     -1.15650204569709      0.41529456477867
  C   -1.99080719117016      0.15819322192156      0.17245996104311
  C   -2.94237411611550      1.19270754244273      0.21746110962375
  N   -2.42246637968133      2.40339836079322     -0.06120149480949
  C   -1.10823545061630      2.20901808453730     -0.25647077118751
  C   -0.73411533864913      0.85346964628004     -0.15415296126221
  C   0.59112054802981      0.43648893809809     -0.16033470850664
  N   1.60961349598163      1.29835642609180     -0.15488726990315
  H   4.69044541761390      0.45838631217914      0.40914903469892
  H   4.03033957045624      2.04083732973939      0.11024822757498
  H   -0.42712223978380     -3.77942082584283     -0.53108793065750
  H   -2.41636243979509     -3.23407540972733      0.37610697434211
  H   -3.41334652226730     -1.23591135173311      0.70259012094233
  H   -3.99533063067018      1.07265604203505      0.42978043951626
  H   -0.43969110353529      3.02986521483781     -0.45947071685591
