24
Coordinates from ORCA-job ./opt_b97-3c_parallel
  N   -4.37211454491265     -1.18503755707651      0.50286035912316
  C   -3.33173260959985     -0.68316457431042      0.35375042298617
  C   -2.13641586369526      0.01510121983223      0.19659484149746
  C   -2.05475637131079      1.44493135065925      0.12973950908713
  N   -3.09398128144841      2.24580944500778      0.34480946847043
  C   -0.73542977600941      1.84012771604946     -0.16746796649510
  C   0.06754259321102      0.71371815779891     -0.23807554120703
  C   1.46511946830610      0.69218683491808     -0.26315533587923
  C   2.26763057962058      1.84591614886874     -0.41536123930455
  N   3.54587712650430      1.64977781191649     -0.06615182416560
  C   3.61706617797703      0.37734198767555      0.38581207474426
  C   2.40291386184778     -0.30915430951977      0.26076105267152
  C   2.27288341338863     -1.65441153035308      0.63647019315956
  N   1.47749227441870     -2.58013879259564      0.17878201880978
  C   0.39734272253754     -2.49403279917396     -0.57527006379893
  N   -0.65483665731714     -1.72911165041225     -0.47275924898687
  C   -0.87043972712236     -0.48997593733528     -0.11325274744104
  H   -3.99685169200685      1.86239320811725      0.56870374134751
  H   -3.02337097782978      3.23939591217241      0.22349348768705
  H   -0.39312017506300      2.86111833021367     -0.16600784640632
  H   1.93664099435339      2.81260954145128     -0.76515765794296
  H   4.54874848190309     -0.03336383871272      0.74666624343726
  H   3.02649214211237     -2.01929942207613      1.33060046369300
  H   0.29824228493429     -3.29752767121630     -1.30296927108643
