35
Coordinates from ORCA-job ./opt_b97-3c_parallel
  N   -2.76143561075085      3.38763643638157     -1.84776065509858
  C   -2.26241790544849      2.53645552377331     -1.22578404259743
  C   -1.69949229528501      1.48618456376096     -0.47551975888470
  C   -2.40350059413953      0.27382373460011     -0.46236773753827
  N   -3.62868384114660      0.25633090580255     -1.05424099900527
  C   -2.03372498950732     -0.94715757004712      0.18408953417305
  C   -2.98994157205104     -1.86615456758322      0.63376981793697
  C   -2.40179506961050     -3.11172667144775      0.90249133397826
  C   -1.06266701534842     -3.03157370781968      0.55993365880233
  N   -0.13016654353190     -4.01828067025840      0.69380017407321
  C   -0.77625261730055     -1.66208512889817      0.11190301675320
  C   0.47895796445131     -1.24296565927672     -0.28187644156957
  C   1.50674490856110     -2.07380839521113     -0.79211759168532
  C   2.67206030919458     -1.32966934216108     -0.87780127765769
  N   3.86251809527694     -1.68263280919425     -1.37723019341577
  C   2.41775031430027     -0.00036244348458     -0.34398102332523
  C   3.41917698712576      0.97206543809604     -0.28938790239464
  N   4.32097318577608      1.70744205383508     -0.32336113230823
  C   1.07682491680137      0.09912631231655     -0.01585811752393
  C   0.53056510146189      1.19659548744397      0.72264325836624
  C   1.37627089346795      1.78880332356469      1.68586091212929
  N   2.00814784497361      2.30734022069829      2.51512113835445
  C   -0.65856131536221      1.88548881386087      0.45243663119411
  N   -0.83705447694559      3.09242041648823      1.02288324871530
  H   -3.98287263012374     -0.62363980230633     -1.38004583723277
  H   -3.96909758578015      1.07870067098136     -1.52378833412016
  H   -4.03619938734080     -1.63784412444267      0.77058632343577
  H   -2.89601732231282     -3.96898796741100      1.33128041804746
  H   0.83260600891906     -3.71703705121760      0.71498772093156
  H   -0.34512625332873     -4.73716781493821      1.36472253114014
  H   1.35727953447460     -3.04785756425813     -1.22726615103197
  H   4.00038881898757     -2.57409073108907     -1.81496431551476
  H   4.60469073069884     -1.00792781164183     -1.44568548926171
  H   -1.65664991464380      3.63275568331529      0.81458463169308
  H   -0.08521943271277      3.55167350346803      1.50945384254138
