33
Coordinates from ORCA-job ./opt_b97-3c_parallel
  N   -3.11942406195812      3.53144168802649      1.86038410285357
  C   -2.51257084113462      2.74870942811151      1.24962867157549
  C   -1.82177995495611      1.74490656377212      0.53084567668487
  C   -0.75334233041824      2.22145374677370     -0.28730201418659
  C   0.45925830579335      1.69216086836566     -0.62636885148272
  C   1.23296112945733      2.48083084520029     -1.52463030729078
  N   1.83915226214330      3.10641597937453     -2.29222150933409
  C   1.12627788634887      0.51552944343282     -0.10556787814468
  C   2.48717910422471      0.47385855975344      0.14448406859009
  C   3.43196436186372      1.50575874538088      0.15011814224525
  N   4.30172564782818      2.27351392899229      0.23018416884984
  C   2.86681267567115     -0.88893624674565      0.47621026072614
  N   4.09871321830988     -1.24809105133508      0.83150813275925
  C   1.73226120883921     -1.69202087670360      0.37547403136865
  C   1.73363925961729     -3.04750599176519      0.70796058559123
  N   1.80451235478732     -4.17507812971202      0.99068803992484
  C   0.61683877177325     -0.85123424230580      0.03552987285094
  C   -0.65789484426898     -1.30146282491560     -0.24352631063188
  C   -0.91068772122342     -2.63235403853873     -0.78895100698552
  N   -2.15630650666478     -2.80128677522458     -1.13201672206577
  C   -2.81832588827943     -1.64100980259524     -0.73565921908794
  N   -4.15237094910655     -1.61055550999136     -0.89211510240042
  C   -1.94735797336526     -0.67673052748254     -0.20375469587003
  C   -2.38883424732647      0.47287087123327      0.54875752044368
  N   -3.55298711763875      0.29354686462569      1.23288363082085
  H   -0.89950810783219      3.23789410840208     -0.63535583874535
  H   4.83439274969949     -0.56694421545430      0.90277095379613
  H   4.31275045237078     -2.20526735254164      1.05074783036390
  H   -0.15928582479130     -3.37156978239990     -1.01643249231890
  H   -4.56452599160536     -2.35426109316436     -1.42823415363001
  H   -4.65156600488569     -0.74142800343732     -0.82983487435995
  H   -3.88727009004935      1.03405033872298      1.82889323101454
  H   -3.79875232492282     -0.63899767485421      1.51289888887509
