34
Coordinates from ORCA-job ./opt_b97-3c_parallel
  N   5.79058621091451     -0.75263744372702      1.45029390193939
  C   4.73929542639514     -0.49989154115339      1.02450473866770
  C   3.47965072907055     -0.17191754932892      0.49696804576668
  C   3.15028698887491      1.07719338828787     -0.12058601778560
  C   1.80373748580432      1.08648722949574     -0.42222107222721
  C   1.21607243208721      2.10505687887880     -1.25395443901777
  N   2.09331423355734      2.67846314091824     -2.13052582515739
  C   -0.04734536667455      2.64865890914902     -1.19240214368742
  C   -1.09922768606532      2.49807964240745     -0.26133733461800
  N   -1.81398253351307      3.62733597370278     -0.04404087955267
  C   -1.60006969282105      1.30976957288032      0.34152332213519
  C   -2.67079879443554      1.51793270956725      1.24193239629264
  N   -3.50151320296566      1.77748557963173      2.01466947308546
  C   -1.32771839657835     -0.04182529602603      0.01831492088068
  C   -2.31345917196861     -1.03441390299160      0.06988849158470
  C   -3.70348720219928     -0.90722875226781      0.13560220184253
  N   -4.86711724684237     -0.92599590577205      0.14498914903670
  C   -1.69515564989093     -2.31179579408680     -0.11146010340687
  N   -2.34440837191816     -3.46443953739437     -0.20032466912853
  C   -0.29940377340485     -2.12613626239054     -0.22583349589540
  C   0.56136487453550     -3.19741253013032     -0.47359777943060
  N   1.18554106168537     -4.15835841283101     -0.68076443989185
  C   -0.01921475753614     -0.74125403774882     -0.15332227665016
  C   1.26199069879361     -0.21335050150216     -0.02608474835310
  C   2.34730786386810     -0.96541599742944      0.50728672591378
  H   3.84812204686834      1.88036132079074     -0.29009412568118
  H   2.87659907373466      2.13202719578952     -2.43891141861107
  H   1.75710684713363      3.36503186611888     -2.78214778075554
  H   -0.20758301633457      3.48335678355971     -1.86677307831023
  H   -1.42202329998115      4.51980442960554     -0.27621276385446
  H   -2.64091759049335      3.62023654813689      0.52842997694856
  H   -3.34717633393381     -3.49736249005106     -0.12676499856157
  H   -1.84656732091926     -4.32476423138830     -0.35509478672055
  H   2.27722508905086     -1.94655472690236      0.94066145750115
