31
Coordinates from ORCA-job ./opt_b97-3c_parallel
  N   -5.65995838300314      0.63700896667390     -0.19612117727903
  C   -4.51877030985556      0.72758733611118      0.01059992626417
  C   -3.13409607694461      0.78119187369070      0.21030236873019
  C   -2.42294068223858      1.66207933408440      1.02538753773888
  C   -1.04864771769671      1.45836955670533      0.84165595772637
  C   -0.15002826841527      2.41224395065686      1.28935749498558
  N   1.01547753013030      2.77445875182239      0.81265925288554
  C   1.94294164617127      2.22721030772911      0.07168218549676
  N   2.64536698515665      3.07567340060741     -0.70428591073510
  C   2.40752902932697      0.84907517095260      0.09881599540432
  C   3.80581917440119      0.70932533776564     -0.06760290401364
  N   4.95585955554685      0.71407706414598     -0.24133606689947
  C   1.67994876395042     -0.32837555027632      0.19252094925523
  N   2.38034225898228     -1.48382287539721      0.23788270333456
  C   1.50874988278972     -2.47678912409196      0.07150168647820
  N   1.88253357694931     -3.75266095813853      0.10193972021788
  C   0.16044250481400     -2.01298796038582     -0.10581720387123
  C   -0.91048323896972     -2.90064446447986     -0.07031255415476
  N   -1.74273099000789     -3.71774451974269     -0.05455016526915
  C   0.20085873824168     -0.60861045962130      0.00607811154629
  C   -0.88510356263603      0.26862276975726     -0.01666118340850
  C   -2.20386496925480     -0.06838243019276     -0.45785497828042
  N   -2.56366650993714     -0.94119399894148     -1.41539975241950
  H   -2.85985248277146      2.44795579999514      1.61973493881849
  H   -0.53044562283930      3.08414157218675      2.05485705307588
  H   3.49490900239205      2.77834819926830     -1.15175716016171
  H   2.49913492861434      4.06116571655619     -0.57372712729570
  H   1.20725395173241     -4.49369975513800      0.04235693530502
  H   2.83807666074201     -3.97642390881446      0.31706322320067
  H   -3.52221995505571     -1.24611924270975     -1.44981514577592
  H   -1.89992839491795     -1.60635660277927     -1.76441323150191
