27
Coordinates from ORCA-job ./opt_b97-3c_parallel
  N   -5.55920345598686     -1.47755940894513      0.49278821344322
  C   -4.46127598347212     -1.12835760382080      0.34346889583657
  C   -3.14187271345377     -0.68254262271505      0.15295631310067
  C   -2.77899867304500      0.65297300681342     -0.23390142259256
  C   -1.40699893315630      0.74934287705463     -0.26499037598235
  C   -0.72093265464416      1.92802268700072     -0.74920625326274
  N   -1.35128678372388      2.62136803931039     -1.72172020657472
  N   0.35985451841082      2.47435114962114     -0.26348460894851
  C   1.26260401644441      1.97454118469032      0.57318628850963
  N   1.59339935986060      2.72624993412773      1.63745890575827
  N   2.03812860790261      0.90816380499017      0.36825285605424
  C   1.74722540694537     -0.30504294779026      0.00991852819284
  C   2.71212073332537     -1.31216104479121     -0.24131014865623
  C   4.09539578606042     -1.12843190280271     -0.32614362806146
  N   5.24563892390803     -0.97444980975487     -0.39707798108110
  C   2.00292728545791     -2.52204316427044     -0.22401866973154
  N   0.67658559748928     -2.38961384728594     -0.04693131898941
  C   0.42476126480348     -1.06803692879708      0.03388154434200
  C   -0.86916705910286     -0.57434619664448      0.07197629695739
  C   -1.98909468147768     -1.42646912588045      0.29683248850460
  H   -3.48074855373023      1.44697020099842     -0.43029036016833
  H   -2.05042136210537      2.17263518389521     -2.28244406527008
  H   -0.91077183800908      3.45068871027260     -2.07954892182836
  H   1.18545943559989      3.63864731698868      1.73357176394098
  H   2.45585261298501      2.53065546024558      2.11478955203332
  H   2.43999818625166     -3.50376168222173     -0.33806905105313
  H   -1.91394003593731     -2.46737594198824      0.55448997162686
