25
Coordinates from ORCA-job ./opt_b97-3c_parallel
  N   3.73038003284676      0.22405041555056      0.94503761637663
  C   2.72728828521853      0.71727471873882      0.61515271292995
  C   1.54001085224654      1.30328698225618      0.16803234552648
  C   1.37051922343585      2.66843519518823      0.02786742086407
  C   0.01728534561716      2.93984080987276     -0.27606280116803
  C   -0.71722691636629      1.77167396476290     -0.25318586169837
  C   -2.08193582029026      1.72916133429137     -0.67675329296113
  C   -3.08696717021696      0.89403454037791     -0.32548484286937
  N   -3.15036902186982     -0.02178066225810      0.67953487887496
  C   -2.36967823278406     -0.99783105067480      0.91610707141141
  C   -1.19167293368145     -1.43453890067494      0.19459142888731
  C   -0.82690533636576     -2.76942443561862      0.08323156850816
  N   0.42870993167279     -2.98077249378972     -0.39818262987002
  C   0.97116698732081     -1.77987204810043     -0.50015864169727
  N   2.13244463392278     -1.60748731738984     -1.12706187281228
  C   -0.00491890983470     -0.68496255788454     -0.09370140018593
  C   0.24071238828341      0.66434188350568     -0.01182222655753
  H   2.14856742275375      3.40152642678857      0.17070145596233
  H   -0.38839409759918      3.91594680257729     -0.49014458495777
  H   -2.36921046037219      2.53533699087754     -1.34230681529538
  H   -4.05310824448041      1.06210687837958     -0.79079472028626
  H   -2.63348396948613     -1.60539438560871      1.78253410454720
  H   -1.43724166025925     -3.61392045093461      0.37215110047158
  H   2.62588702267619     -2.44936370790711     -1.37694723107471
  H   2.69214992301188     -0.78495382442606     -0.98266324762603
