30
Coordinates from ORCA-job ./opt_b97-3c_parallel
  N   -5.04925505627293     -1.41283413153405     -0.27697422315232
  C   -4.10064339189675     -0.76285277694872     -0.10618300299735
  C   -2.98081333762890      0.04753963215830      0.11170178405431
  C   -2.98363874940855      1.36289423716625      0.68443284360971
  N   -1.79382684239441      1.92010840971310      0.65394932740697
  C   -0.91972493163809      0.96291611822874      0.13130202341356
  C   0.42893916712698      1.23366196114703     -0.00716625289039
  C   0.94574453919091      2.64684012286115     -0.09178604084447
  N   0.14093685700045      3.69003475602408      0.04605370723879
  C   2.29130663053469      2.60647264423089     -0.38314926335128
  C   2.67777519135349      1.24790909631255     -0.38664513133087
  N   3.91781242336790      0.82004858001934     -0.62882843230193
  C   1.54660311846451      0.38686784138180     -0.13287736553797
  C   1.67440759182231     -0.98987469396024      0.27963414963557
  N   2.86475264838673     -1.28208395339704      0.94000548014329
  C   0.78983035429458     -2.01152085942505      0.02524131909874
  C   1.07174415003387     -3.28734091086969      0.54877211019033
  N   1.32731442878816     -4.33520436273887      0.99002917915863
  C   -0.27321208346318     -1.98094016388892     -0.99532505958065
  N   -1.30077576767495     -1.24212849205056     -1.08592997966727
  C   -1.66112738753924     -0.21417019838123     -0.25495195143810
  H   -3.84631558430736      1.87530670228045      1.08319972775976
  H   0.49248193139624      4.62913137081183     -0.00815029853526
  H   -0.81220399232007      3.48999790971389      0.36479818098370
  H   2.93961038693921      3.44713640828970     -0.56757022159648
  H   4.13787112276485     -0.15524724379571     -0.50280074582029
  H   4.67131477544280      1.47074230565000     -0.75579837785910
  H   2.92690494244054     -2.22395588650142      1.29933115654947
  H   3.13219484603760     -0.59987829475253      1.63305533214433
  H   -0.18200662113644     -2.74783345704633     -1.76428191128136
