31
Coordinates from ORCA-job ./opt_b97-3c_parallel
  N   0.63065304156593     -4.05354113538938      1.11363381777976
  C   -0.14877306681920     -3.27969346786112      0.72051170444121
  C   -1.04397980267064     -2.35009625233631      0.19016497880676
  C   -2.34837814601000     -2.62744339836351     -0.21080961730563
  N   -3.01720918938367     -1.52041541514324     -0.59099080828046
  C   -2.21620535216293     -0.46252755642979     -0.36312243397435
  C   -2.67231015266956      0.81187267244069     -0.80596209869990
  C   -2.48430377616914      2.04390512078717     -0.26348937654372
  N   -3.08223474131090      3.14597033913661     -0.82116411243778
  C   -1.75074068615788      2.33990790211250      0.97011232670916
  C   -0.49484826925940      2.00231620831897      1.25139877464848
  C   0.40999301360197      1.20123129265094      0.44591553423164
  C   1.76395131879239      1.55031894293628      0.27550653988356
  N   2.31387260037468      2.72739442159037      0.58643092126600
  C   2.51231186282987      0.42714964702658     -0.21105317521200
  C   3.85270613300503      0.43948711964391     -0.58410058153550
  N   4.97793245041164      0.46479534558586     -0.88899775250993
  C   1.62667335123557     -0.64180566726034     -0.30439005354670
  N   1.91252805815875     -1.81967246006122     -0.84748742386100
  C   0.26801002919014     -0.16407220841965      0.12021587679111
  C   -0.89982581690657     -0.91973892646462      0.10152060564206
  H   -2.82905188152803     -3.59385079183052     -0.19897887508622
  H   -3.39804754590498      0.74032719561140     -1.60992575984645
  H   -3.82262422731998      3.00188864927161     -1.48651916465521
  H   -3.18114112858064      3.96846974793768     -0.25397507741332
  H   -2.30113819042755      2.92952545909641      1.69850779343421
  H   -0.09506631004657      2.34982979346146      2.20375378849569
  H   1.73087748248769      3.52230729244649      0.77703474080387
  H   3.28763782304347      2.89790881500799      0.40509395633257
  H   2.86948108818550     -2.01443150683331     -1.09335104360483
  H   1.33127260974498     -2.62420143827003     -0.67996717195317
