32
Coordinates from ORCA-job ./opt_b97-3c_parallel
  N   3.73729880237737      3.37912076178822     -1.02651516652420
  C   2.99426364349469      2.55165269138802     -0.68280227439667
  C   2.06765196131874      1.56836373239516     -0.25336705572290
  C   2.64936342455535      0.30269592342657     -0.09099437659829
  C   2.23674313695864     -0.98460559859218      0.15810474241805
  C   3.21894187885444     -1.99399513075207      0.31208544232563
  C   2.64585597699107     -3.24678244046042      0.38100916592733
  C   1.25758328779769     -3.10215839287177      0.22375966962739
  N   0.35924663666996     -4.08942108863113      0.20913421704431
  C   0.94308387742023     -1.68218230568024      0.10956202657053
  C   -0.33509797565514     -1.22712866287347     -0.09485633948134
  N   -1.34410718477593     -2.12568591501674     -0.35001986948453
  C   -2.48384442400470     -1.44670997299879     -0.37527346091856
  N   -3.66209473582743     -2.00725500068066     -0.64314222397115
  C   -2.29252417596103     -0.04912661706179     -0.10507385978566
  C   -3.34428598728102      0.86294582194746     -0.20890958792325
  N   -4.29942196133567      1.51023246620663     -0.36355124730072
  C   -0.92051762561587      0.14787366897011      0.06998359775425
  C   -0.39621304183733      1.38671208978428      0.51294883122487
  C   -1.31086729364220      2.17570127661582      1.24966024178716
  N   -1.99209407061782      2.85065085062100      1.91055297017268
  C   0.80782425814140      2.08411728642210      0.16829377637125
  N   0.73923323326216      3.42508733095112      0.27830181796229
  H   3.72715168443348      0.35809514490787     -0.19808911918911
  H   4.27851502811210     -1.79008009917778      0.34601487915870
  H   3.16403127481666     -4.18488170087216      0.50257728373526
  H   -0.59049167658436     -3.83364281600097     -0.04507100112789
  H   0.65799002323178     -5.04731974157543      0.22459348019803
  H   -4.48762682626989     -1.43983852488704     -0.72300928311468
  H   -3.70641286474528     -2.96784404125371     -0.93063854307232
  H   1.55513464818287      3.99709690780942      0.14536221874983
  H   -0.11529774236561      3.88024024395752      0.54741450138253
