30
Coordinates from ORCA-job ./opt_b97-3c_parallel
  N   4.70391345674601      0.62812018397015      0.90970236834697
  C   3.80682024586267     -0.06930983729188      0.65697610670114
  C   2.73135897812246     -0.90287235617111      0.33425904721538
  C   2.69268943267878     -2.28211129768914      0.47444374463385
  N   1.50358243267578     -2.83457718601734      0.10677534205417
  C   0.68850944696485     -1.82833351603128     -0.18819020090948
  N   -0.45719846758570     -2.06307600484072     -0.84320375321117
  C   -1.61622600787072     -1.51543870474774     -0.72464072039640
  N   -2.57414483527796     -1.88192091732788     -1.60558673561645
  C   -2.06162237513791     -0.57604279111359      0.32613452459766
  C   -3.18387599085444     -0.96477939725007      1.07583966110016
  N   -4.12938825106676     -1.25218960142707      1.69416231613743
  C   -1.57005076320745      0.70164897365184      0.46516012283616
  N   -2.25495839278668      1.59732190445772      1.26339668293870
  C   -0.43402037569184      1.25804461344055     -0.23073449657284
  C   -0.35741014614051      2.60072995187690     -0.63041263163070
  N   -1.36184649202930      3.48782453876510     -0.74787267771358
  C   1.01723078304153      2.92464915221634     -0.96696606804443
  C   1.78094504642823      1.84498533201568     -0.70221427215269
  C   0.91562239312499      0.74111000114568     -0.28710213888908
  C   1.39466637580974     -0.51862837141408     -0.03464655563060
  H   3.49220763876227     -2.90368022527189      0.84831812513740
  H   -3.52836372516505     -1.61254536615434     -1.45245199406993
  H   -2.39868635235994     -2.68584959458265     -2.18412841020048
  H   -1.67136098445669      2.23828173830240      1.77637256553832
  H   -3.00340839070988      1.21404799007904      1.82130581121198
  H   -2.26727996448730      3.25823743310254     -0.37377722785235
  H   -1.15834878040262      4.45756688681513     -0.90561261500926
  H   1.34314244205079      3.87016238108720     -1.37232425012790
  H   2.84191846806250      1.75530009580399     -0.85443146512176
