31
Coordinates from ORCA-job ./opt_b97-3c_parallel
  N   0.76955153138641      5.29947760353505      0.58898658372006
  C   0.51662892579099      4.17902325178481      0.41427088052440
  C   0.19049732765719      2.82949520627430      0.19711769079951
  C   -1.12274644561022      2.33052063792402     -0.00510292308870
  C   -1.08049706999424      0.94371300708947     -0.07214436059571
  C   -2.25386464838808      0.21674209290432     -0.45730632772327
  N   -3.12738958996365      0.91252717839525     -1.21683988784283
  C   -2.67517906698643     -1.05994768317730     -0.01097950601464
  C   -4.00996793719067     -1.39685872389863     -0.35288150235611
  N   -5.10503938939648     -1.63566832447667     -0.66429310096524
  C   -2.04462016310140     -2.04068575602046      0.77720548934917
  C   -0.75148580476475     -2.40615422062242      1.05702130692210
  C   0.50848705341010     -1.98775544174973      0.61373175036693
  C   1.60915016319407     -2.82728894354491      0.70936007003500
  C   2.72809143433382     -2.18231250898008      0.15162000137340
  N   3.95155220997131     -2.68631070286330     -0.00957971857236
  C   2.34856169213709     -0.86221072059482     -0.24612766756617
  C   3.26257358974461     -0.00637745402762     -0.86155921620518
  N   4.11096218841471      0.60830141664072     -1.37152794765814
  C   0.98602669725133     -0.68281429702761      0.05172482964779
  C   0.33670918690160      0.55453593322999      0.06096369036936
  C   1.07263025364596      1.75886234025188      0.18971147651498
  H   -2.00854784454927      2.94295307202031     -0.02818858698870
  H   -4.02798624115380      0.53708833621884     -1.46046693517879
  H   -2.82903721312629      1.75311829258680     -1.67281478740088
  H   -2.76107607889766     -2.75509445933555      1.16520834535017
  H   -0.69698877578522     -3.32298525790341      1.63310819568761
  H   1.59291822417503     -3.83253699625151      1.09848756552893
  H   4.17209701313450     -3.62582329696897      0.26313337581698
  H   4.67661589743249     -2.13907409284427     -0.44214633893487
  H   2.13058449062732      1.83018959613188      0.36303788828557
