29
Coordinates from ORCA-job ./opt_b97-3c_parallel
  N   3.56168521809866      2.36365846692123     -1.35205238095408
  C   2.55776782292794      2.00832447310958     -0.88474544538950
  C   1.34750142940535      1.55334066387636     -0.29919537656317
  C   0.36022885291760      2.51450755353472     -0.20538081950571
  N   -0.77686496908576      2.55755200473491      0.47675994940643
  C   -1.74044544938712      1.70630435844896      0.65076454808100
  N   -2.74926257087072      2.11046276734027      1.47758486479565
  C   -1.95338530792114      0.44514288204701     -0.01642846453831
  C   -3.19297328522405     -0.04155174234552     -0.38653709213742
  N   -3.16685091922064     -1.33785866188507     -0.82783872777932
  C   -1.91932011021960     -1.74371811202151     -0.66101163318823
  N   -1.52558286354884     -2.99348006510802     -1.02017236053373
  C   -1.04549485617320     -0.67663772111346     -0.14499751795841
  C   0.28276153477951     -0.84087469885563      0.17815260267512
  C   0.89965270284597     -2.08714095564852      0.46501114972910
  C   2.24869682284794     -1.86127444622878      0.68225679492693
  N   3.18934275870281     -2.75748756729954      1.03954174691848
  C   2.53809728718159     -0.46440198519335      0.45652069565792
  C   1.37701272015225      0.19649570907241      0.18834931611286
  H   0.61750553484849      3.46733668674632     -0.66075851932196
  H   -2.60162840292574      2.96892381996442      1.98079193414669
  H   -3.31533879992150      1.41010688603404      1.91924513450758
  H   -4.12476384597262      0.50442605275388     -0.37093228165685
  H   -2.16215025399997     -3.46149537823129     -1.64528169657584
  H   -0.54832212325682     -3.12031904506929     -1.22739038047224
  H   0.37490838602947     -2.99872019698989      0.69749242743868
  H   4.08826759537125     -2.43991697959224      1.35231744920283
  H   2.92324026560673     -3.68478495514780      1.31655535249613
  H   3.52602560321219     -0.03181110915430      0.44551475697936
